
---------- Begin Simulation Statistics ----------
simSeconds                                   0.079292                       # Number of seconds simulated (Second)
simTicks                                  79292440521                       # Number of ticks simulated (Tick)
finalTick                                33458185280377                       # Number of ticks from beginning of simulation (restored from checkpoints and never reset) (Tick)
simFreq                                  1000000000000                       # The number of ticks per simulated second ((Tick/Second))
hostSeconds                                   4239.80                       # Real time elapsed on the host (Second)
hostTickRate                                 18701912                       # The number of ticks simulated per host second (ticks/s) ((Tick/Second))
hostMemory                                    6912056                       # Number of bytes of host memory used (Byte)
simInsts                                   7606063103                       # Number of instructions simulated (Count)
simOps                                     7948659164                       # Number of ops (including micro ops) simulated (Count)
hostInstRate                                  1793966                       # Simulator instruction rate (inst/s) ((Count/Second))
hostOpRate                                    1874770                       # Simulator op (including micro ops) rate (op/s) ((Count/Second))
board.cache_hierarchy.ruby_system.delayHistogram::bucket_size          256                       # delay histogram for all message (Unspecified)
board.cache_hierarchy.ruby_system.delayHistogram::max_bucket         2559                       # delay histogram for all message (Unspecified)
board.cache_hierarchy.ruby_system.delayHistogram::samples     36926923                       # delay histogram for all message (Unspecified)
board.cache_hierarchy.ruby_system.delayHistogram::mean     0.816035                       # delay histogram for all message (Unspecified)
board.cache_hierarchy.ruby_system.delayHistogram::stdev     3.338791                       # delay histogram for all message (Unspecified)
board.cache_hierarchy.ruby_system.delayHistogram |    36926636    100.00%    100.00% |         205      0.00%    100.00% |          47      0.00%    100.00% |          22      0.00%    100.00% |          10      0.00%    100.00% |           0      0.00%    100.00% |           2      0.00%    100.00% |           1      0.00%    100.00% |           0      0.00%    100.00% |           0      0.00%    100.00% # delay histogram for all message (Unspecified)
board.cache_hierarchy.ruby_system.delayHistogram::total     36926923                       # delay histogram for all message (Unspecified)
board.cache_hierarchy.ruby_system.m_outstandReqHistSeqr::bucket_size            2                       (Unspecified)
board.cache_hierarchy.ruby_system.m_outstandReqHistSeqr::max_bucket           19                       (Unspecified)
board.cache_hierarchy.ruby_system.m_outstandReqHistSeqr::samples    200347752                       (Unspecified)
board.cache_hierarchy.ruby_system.m_outstandReqHistSeqr::mean     1.905671                       (Unspecified)
board.cache_hierarchy.ruby_system.m_outstandReqHistSeqr::gmean     1.554576                       (Unspecified)
board.cache_hierarchy.ruby_system.m_outstandReqHistSeqr::stdev     1.692431                       (Unspecified)
board.cache_hierarchy.ruby_system.m_outstandReqHistSeqr |   110233292     55.02%     55.02% |    72198464     36.04%     91.06% |    11263403      5.62%     96.68% |     3035003      1.51%     98.19% |     1441170      0.72%     98.91% |      737167      0.37%     99.28% |      549840      0.27%     99.56% |      695998      0.35%     99.90% |      193415      0.10%    100.00% |           0      0.00%    100.00% (Unspecified)
board.cache_hierarchy.ruby_system.m_outstandReqHistSeqr::total    200347752                       (Unspecified)
board.cache_hierarchy.ruby_system.m_latencyHistSeqr::bucket_size         2048                       (Unspecified)
board.cache_hierarchy.ruby_system.m_latencyHistSeqr::max_bucket        20479                       (Unspecified)
board.cache_hierarchy.ruby_system.m_latencyHistSeqr::samples    201859231                       (Unspecified)
board.cache_hierarchy.ruby_system.m_latencyHistSeqr::mean     7.693976                       (Unspecified)
board.cache_hierarchy.ruby_system.m_latencyHistSeqr::gmean     1.165204                       (Unspecified)
board.cache_hierarchy.ruby_system.m_latencyHistSeqr::stdev    51.556881                       (Unspecified)
board.cache_hierarchy.ruby_system.m_latencyHistSeqr |   201858876    100.00%    100.00% |         302      0.00%    100.00% |          24      0.00%    100.00% |          14      0.00%    100.00% |          14      0.00%    100.00% |           1      0.00%    100.00% |           0      0.00%    100.00% |           0      0.00%    100.00% |           0      0.00%    100.00% |           0      0.00%    100.00% (Unspecified)
board.cache_hierarchy.ruby_system.m_latencyHistSeqr::total    201859231                       (Unspecified)
board.cache_hierarchy.ruby_system.m_hitLatencyHistSeqr::bucket_size         1024                       (Unspecified)
board.cache_hierarchy.ruby_system.m_hitLatencyHistSeqr::max_bucket        10239                       (Unspecified)
board.cache_hierarchy.ruby_system.m_hitLatencyHistSeqr::samples    195341080                       (Unspecified)
board.cache_hierarchy.ruby_system.m_hitLatencyHistSeqr::mean     1.025321                       (Unspecified)
board.cache_hierarchy.ruby_system.m_hitLatencyHistSeqr::gmean     1.006121                       (Unspecified)
board.cache_hierarchy.ruby_system.m_hitLatencyHistSeqr::stdev     2.697087                       (Unspecified)
board.cache_hierarchy.ruby_system.m_hitLatencyHistSeqr |   195340909    100.00%    100.00% |         167      0.00%    100.00% |           3      0.00%    100.00% |           0      0.00%    100.00% |           0      0.00%    100.00% |           1      0.00%    100.00% |           0      0.00%    100.00% |           0      0.00%    100.00% |           0      0.00%    100.00% |           0      0.00%    100.00% (Unspecified)
board.cache_hierarchy.ruby_system.m_hitLatencyHistSeqr::total    195341080                       (Unspecified)
board.cache_hierarchy.ruby_system.m_missLatencyHistSeqr::bucket_size         2048                       (Unspecified)
board.cache_hierarchy.ruby_system.m_missLatencyHistSeqr::max_bucket        20479                       (Unspecified)
board.cache_hierarchy.ruby_system.m_missLatencyHistSeqr::samples      6518151                       (Unspecified)
board.cache_hierarchy.ruby_system.m_missLatencyHistSeqr::mean   207.545501                       (Unspecified)
board.cache_hierarchy.ruby_system.m_missLatencyHistSeqr::gmean    94.834201                       (Unspecified)
board.cache_hierarchy.ruby_system.m_missLatencyHistSeqr::stdev   202.057258                       (Unspecified)
board.cache_hierarchy.ruby_system.m_missLatencyHistSeqr |     6517800     99.99%     99.99% |         299      0.00%    100.00% |          23      0.00%    100.00% |          14      0.00%    100.00% |          14      0.00%    100.00% |           1      0.00%    100.00% |           0      0.00%    100.00% |           0      0.00%    100.00% |           0      0.00%    100.00% |           0      0.00%    100.00% (Unspecified)
board.cache_hierarchy.ruby_system.m_missLatencyHistSeqr::total      6518151                       (Unspecified)
board.cache_hierarchy.ruby_system.delayVCHist.vnet_0::bucket_size          256                       # delay histogram for vnet_0 (Unspecified)
board.cache_hierarchy.ruby_system.delayVCHist.vnet_0::max_bucket         2559                       # delay histogram for vnet_0 (Unspecified)
board.cache_hierarchy.ruby_system.delayVCHist.vnet_0::samples     12248193                       # delay histogram for vnet_0 (Unspecified)
board.cache_hierarchy.ruby_system.delayVCHist.vnet_0::mean     1.491715                       # delay histogram for vnet_0 (Unspecified)
board.cache_hierarchy.ruby_system.delayVCHist.vnet_0::stdev     5.054026                       # delay histogram for vnet_0 (Unspecified)
board.cache_hierarchy.ruby_system.delayVCHist.vnet_0 |    12247906    100.00%    100.00% |         205      0.00%    100.00% |          47      0.00%    100.00% |          22      0.00%    100.00% |          10      0.00%    100.00% |           0      0.00%    100.00% |           2      0.00%    100.00% |           1      0.00%    100.00% |           0      0.00%    100.00% |           0      0.00%    100.00% # delay histogram for vnet_0 (Unspecified)
board.cache_hierarchy.ruby_system.delayVCHist.vnet_0::total     12248193                       # delay histogram for vnet_0 (Unspecified)
board.cache_hierarchy.ruby_system.delayVCHist.vnet_1::bucket_size           16                       # delay histogram for vnet_1 (Unspecified)
board.cache_hierarchy.ruby_system.delayVCHist.vnet_1::max_bucket          159                       # delay histogram for vnet_1 (Unspecified)
board.cache_hierarchy.ruby_system.delayVCHist.vnet_1::samples     20671383                       # delay histogram for vnet_1 (Unspecified)
board.cache_hierarchy.ruby_system.delayVCHist.vnet_1::mean     0.573821                       # delay histogram for vnet_1 (Unspecified)
board.cache_hierarchy.ruby_system.delayVCHist.vnet_1::stdev     2.078602                       # delay histogram for vnet_1 (Unspecified)
board.cache_hierarchy.ruby_system.delayVCHist.vnet_1 |    20590658     99.61%     99.61% |       79053      0.38%     99.99% |        1623      0.01%    100.00% |          40      0.00%    100.00% |           7      0.00%    100.00% |           2      0.00%    100.00% |           0      0.00%    100.00% |           0      0.00%    100.00% |           0      0.00%    100.00% |           0      0.00%    100.00% # delay histogram for vnet_1 (Unspecified)
board.cache_hierarchy.ruby_system.delayVCHist.vnet_1::total     20671383                       # delay histogram for vnet_1 (Unspecified)
board.cache_hierarchy.ruby_system.delayVCHist.vnet_2::bucket_size            1                       # delay histogram for vnet_2 (Unspecified)
board.cache_hierarchy.ruby_system.delayVCHist.vnet_2::max_bucket            9                       # delay histogram for vnet_2 (Unspecified)
board.cache_hierarchy.ruby_system.delayVCHist.vnet_2::samples      4007347                       # delay histogram for vnet_2 (Unspecified)
board.cache_hierarchy.ruby_system.delayVCHist.vnet_2::mean     0.000299                       # delay histogram for vnet_2 (Unspecified)
board.cache_hierarchy.ruby_system.delayVCHist.vnet_2::stdev     0.024491                       # delay histogram for vnet_2 (Unspecified)
board.cache_hierarchy.ruby_system.delayVCHist.vnet_2 |     4006749     99.99%     99.99% |           0      0.00%     99.99% |         597      0.01%    100.00% |           0      0.00%    100.00% |           1      0.00%    100.00% |           0      0.00%    100.00% |           0      0.00%    100.00% |           0      0.00%    100.00% |           0      0.00%    100.00% |           0      0.00%    100.00% # delay histogram for vnet_2 (Unspecified)
board.cache_hierarchy.ruby_system.delayVCHist.vnet_2::total      4007347                       # delay histogram for vnet_2 (Unspecified)
board.cache_hierarchy.ruby_system.Directory_Controller.Fetch      4036294      0.00%      0.00% (Unspecified)
board.cache_hierarchy.ruby_system.Directory_Controller.Data      1360750      0.00%      0.00% (Unspecified)
board.cache_hierarchy.ruby_system.Directory_Controller.Memory_Data      4086134      0.00%      0.00% (Unspecified)
board.cache_hierarchy.ruby_system.Directory_Controller.Memory_Ack      1399080      0.00%      0.00% (Unspecified)
board.cache_hierarchy.ruby_system.Directory_Controller.DMA_READ        49918      0.00%      0.00% (Unspecified)
board.cache_hierarchy.ruby_system.Directory_Controller.DMA_WRITE        38336      0.00%      0.00% (Unspecified)
board.cache_hierarchy.ruby_system.Directory_Controller.CleanReplacement      2671448      0.00%      0.00% (Unspecified)
board.cache_hierarchy.ruby_system.Directory_Controller.I.Fetch      4036294      0.00%      0.00% (Unspecified)
board.cache_hierarchy.ruby_system.Directory_Controller.I.DMA_READ        49840      0.00%      0.00% (Unspecified)
board.cache_hierarchy.ruby_system.Directory_Controller.I.DMA_WRITE        38330      0.00%      0.00% (Unspecified)
board.cache_hierarchy.ruby_system.Directory_Controller.ID.Memory_Data        49840      0.00%      0.00% (Unspecified)
board.cache_hierarchy.ruby_system.Directory_Controller.ID_W.Memory_Ack        38330      0.00%      0.00% (Unspecified)
board.cache_hierarchy.ruby_system.Directory_Controller.M.Data      1360666      0.00%      0.00% (Unspecified)
board.cache_hierarchy.ruby_system.Directory_Controller.M.DMA_READ           78      0.00%      0.00% (Unspecified)
board.cache_hierarchy.ruby_system.Directory_Controller.M.DMA_WRITE            6      0.00%      0.00% (Unspecified)
board.cache_hierarchy.ruby_system.Directory_Controller.M.CleanReplacement      2671448      0.00%      0.00% (Unspecified)
board.cache_hierarchy.ruby_system.Directory_Controller.IM.Memory_Data      4036294      0.00%      0.00% (Unspecified)
board.cache_hierarchy.ruby_system.Directory_Controller.MI.Memory_Ack      1360666      0.00%      0.00% (Unspecified)
board.cache_hierarchy.ruby_system.Directory_Controller.M_DRD.Data           78      0.00%      0.00% (Unspecified)
board.cache_hierarchy.ruby_system.Directory_Controller.M_DRDI.Memory_Ack           78      0.00%      0.00% (Unspecified)
board.cache_hierarchy.ruby_system.Directory_Controller.M_DWR.Data            6      0.00%      0.00% (Unspecified)
board.cache_hierarchy.ruby_system.Directory_Controller.M_DWRI.Memory_Ack            6      0.00%      0.00% (Unspecified)
board.cache_hierarchy.ruby_system.DMA_Controller.ReadRequest |       49918    100.00%    100.00% |           0      0.00%    100.00% (Unspecified)
board.cache_hierarchy.ruby_system.DMA_Controller.ReadRequest::total        49918                       (Unspecified)
board.cache_hierarchy.ruby_system.DMA_Controller.WriteRequest |       38336    100.00%    100.00% |           0      0.00%    100.00% (Unspecified)
board.cache_hierarchy.ruby_system.DMA_Controller.WriteRequest::total        38336                       (Unspecified)
board.cache_hierarchy.ruby_system.DMA_Controller.Data |       49918    100.00%    100.00% |           0      0.00%    100.00% (Unspecified)
board.cache_hierarchy.ruby_system.DMA_Controller.Data::total        49918                       (Unspecified)
board.cache_hierarchy.ruby_system.DMA_Controller.Ack |       38336    100.00%    100.00% |           0      0.00%    100.00% (Unspecified)
board.cache_hierarchy.ruby_system.DMA_Controller.Ack::total        38336                       (Unspecified)
board.cache_hierarchy.ruby_system.DMA_Controller.READY.ReadRequest |       49918    100.00%    100.00% |           0      0.00%    100.00% (Unspecified)
board.cache_hierarchy.ruby_system.DMA_Controller.READY.ReadRequest::total        49918                       (Unspecified)
board.cache_hierarchy.ruby_system.DMA_Controller.READY.WriteRequest |       38336    100.00%    100.00% |           0      0.00%    100.00% (Unspecified)
board.cache_hierarchy.ruby_system.DMA_Controller.READY.WriteRequest::total        38336                       (Unspecified)
board.cache_hierarchy.ruby_system.DMA_Controller.BUSY_RD.Data |       49918    100.00%    100.00% |           0      0.00%    100.00% (Unspecified)
board.cache_hierarchy.ruby_system.DMA_Controller.BUSY_RD.Data::total        49918                       (Unspecified)
board.cache_hierarchy.ruby_system.DMA_Controller.BUSY_WR.Ack |       38336    100.00%    100.00% |           0      0.00%    100.00% (Unspecified)
board.cache_hierarchy.ruby_system.DMA_Controller.BUSY_WR.Ack::total        38336                       (Unspecified)
board.cache_hierarchy.ruby_system.L1Cache_Controller.Load |     8121730      9.69%      9.69% |    11189757     13.34%     23.03% |    10836207     12.92%     35.95% |    11639952     13.88%     49.83% |     7427652      8.86%     58.69% |    19527905     23.29%     81.98% |    10296875     12.28%     94.26% |     4815510      5.74%    100.00% (Unspecified)
board.cache_hierarchy.ruby_system.L1Cache_Controller.Load::total     83855588                       (Unspecified)
board.cache_hierarchy.ruby_system.L1Cache_Controller.Ifetch |     7233966     10.77%     10.77% |     8293193     12.35%     23.12% |     9047676     13.47%     36.60% |     9493064     14.14%     50.74% |     6542385      9.74%     60.48% |    13078534     19.48%     79.96% |     8623513     12.84%     92.80% |     4835364      7.20%    100.00% (Unspecified)
board.cache_hierarchy.ruby_system.L1Cache_Controller.Ifetch::total     67147695                       (Unspecified)
board.cache_hierarchy.ruby_system.L1Cache_Controller.Store |     5555099     10.66%     10.66% |     6730127     12.91%     23.57% |     6928000     13.29%     36.86% |     7221608     13.85%     50.71% |     5116680      9.82%     60.53% |     9448843     18.13%     78.65% |     6573617     12.61%     91.26% |     4553414      8.74%    100.00% (Unspecified)
board.cache_hierarchy.ruby_system.L1Cache_Controller.Store::total     52127388                       (Unspecified)
board.cache_hierarchy.ruby_system.L1Cache_Controller.Inv |      515597     13.25%     13.25% |      459420     11.81%     25.06% |      552767     14.21%     39.27% |      446313     11.47%     50.75% |      499010     12.83%     63.58% |      485598     12.48%     76.06% |      509828     13.11%     89.17% |      421473     10.83%    100.00% (Unspecified)
board.cache_hierarchy.ruby_system.L1Cache_Controller.Inv::total      3890006                       (Unspecified)
board.cache_hierarchy.ruby_system.L1Cache_Controller.L1_Replacement |      565572     10.70%     10.70% |      488642      9.24%     19.94% |      683964     12.94%     32.88% |      536864     10.16%     43.04% |      579925     10.97%     54.01% |     1397193     26.43%     80.44% |      570827     10.80%     91.24% |      463127      8.76%    100.00% (Unspecified)
board.cache_hierarchy.ruby_system.L1Cache_Controller.L1_Replacement::total      5286114                       (Unspecified)
board.cache_hierarchy.ruby_system.L1Cache_Controller.Fwd_GETX |         907      6.15%      6.15% |        1168      7.92%     14.07% |        1284      8.71%     22.77% |        4606     31.23%     54.00% |        1215      8.24%     62.24% |        1453      9.85%     72.09% |        3466     23.50%     95.59% |         650      4.41%    100.00% (Unspecified)
board.cache_hierarchy.ruby_system.L1Cache_Controller.Fwd_GETX::total        14749                       (Unspecified)
board.cache_hierarchy.ruby_system.L1Cache_Controller.Fwd_GETS |       12899     12.57%     12.57% |       11101     10.82%     23.40% |       14227     13.87%     37.27% |       14041     13.69%     50.95% |       11394     11.11%     62.06% |       12097     11.79%     73.85% |       17638     17.19%     91.05% |        9184      8.95%    100.00% (Unspecified)
board.cache_hierarchy.ruby_system.L1Cache_Controller.Fwd_GETS::total       102581                       (Unspecified)
board.cache_hierarchy.ruby_system.L1Cache_Controller.Fwd_GET_INSTR |           0      0.00%      0.00% |           3     27.27%     27.27% |           2     18.18%     45.45% |           1      9.09%     54.55% |           0      0.00%     54.55% |           0      0.00%     54.55% |           3     27.27%     81.82% |           2     18.18%    100.00% (Unspecified)
board.cache_hierarchy.ruby_system.L1Cache_Controller.Fwd_GET_INSTR::total           11                       (Unspecified)
board.cache_hierarchy.ruby_system.L1Cache_Controller.Data |         277     13.48%     13.48% |         132      6.42%     19.90% |         116      5.64%     25.55% |         543     26.42%     51.97% |         150      7.30%     59.27% |         263     12.80%     72.07% |         539     26.23%     98.30% |          35      1.70%    100.00% (Unspecified)
board.cache_hierarchy.ruby_system.L1Cache_Controller.Data::total         2055                       (Unspecified)
board.cache_hierarchy.ruby_system.L1Cache_Controller.Data_Exclusive |      251702      9.56%      9.56% |      229255      8.71%     18.27% |      316099     12.01%     30.27% |      256257      9.73%     40.00% |      229640      8.72%     48.73% |      871572     33.10%     81.83% |      263117      9.99%     91.82% |      215332      8.18%    100.00% (Unspecified)
board.cache_hierarchy.ruby_system.L1Cache_Controller.Data_Exclusive::total      2632974                       (Unspecified)
board.cache_hierarchy.ruby_system.L1Cache_Controller.DataS_fromL1 |       11651     11.36%     11.36% |       12428     12.11%     23.47% |       14946     14.57%     38.04% |       16106     15.70%     53.74% |       13019     12.69%     66.43% |       11233     10.95%     77.38% |       15599     15.20%     92.58% |        7610      7.42%    100.00% (Unspecified)
board.cache_hierarchy.ruby_system.L1Cache_Controller.DataS_fromL1::total       102592                       (Unspecified)
board.cache_hierarchy.ruby_system.L1Cache_Controller.Data_all_Acks |      469352     12.29%     12.29% |      408879     10.70%     22.99% |      525562     13.76%     36.75% |      416716     10.91%     47.65% |      481999     12.62%     60.27% |      648303     16.97%     77.24% |      463919     12.14%     89.38% |      405527     10.62%    100.00% (Unspecified)
board.cache_hierarchy.ruby_system.L1Cache_Controller.Data_all_Acks::total      3820257                       (Unspecified)
board.cache_hierarchy.ruby_system.L1Cache_Controller.Ack |        4515     14.05%     14.05% |        3416     10.63%     24.68% |        3482     10.84%     35.52% |        6552     20.39%     55.91% |        3058      9.52%     65.43% |        3915     12.18%     77.61% |        5594     17.41%     95.02% |        1599      4.98%    100.00% (Unspecified)
board.cache_hierarchy.ruby_system.L1Cache_Controller.Ack::total        32131                       (Unspecified)
board.cache_hierarchy.ruby_system.L1Cache_Controller.Ack_all |        3211     11.25%     11.25% |        3090     10.82%     22.07% |        2849      9.98%     32.05% |        6278     21.99%     54.04% |        2730      9.56%     63.60% |        3551     12.44%     76.04% |        5621     19.69%     95.72% |        1221      4.28%    100.00% (Unspecified)
board.cache_hierarchy.ruby_system.L1Cache_Controller.Ack_all::total        28551                       (Unspecified)
board.cache_hierarchy.ruby_system.L1Cache_Controller.WB_Ack |      153825      7.59%      7.59% |      137046      6.76%     14.36% |      218911     10.81%     25.16% |      176164      8.70%     33.86% |      145531      7.18%     41.04% |      856537     42.28%     83.32% |      165013      8.15%     91.47% |      172808      8.53%    100.00% (Unspecified)
board.cache_hierarchy.ruby_system.L1Cache_Controller.WB_Ack::total      2025835                       (Unspecified)
board.cache_hierarchy.ruby_system.L1Cache_Controller.NP.Load |      236549      9.39%      9.39% |      205938      8.18%     17.57% |      305152     12.11%     29.68% |      247663      9.83%     39.51% |      220294      8.75%     48.26% |      862245     34.23%     82.49% |      252626     10.03%     92.52% |      188541      7.48%    100.00% (Unspecified)
board.cache_hierarchy.ruby_system.L1Cache_Controller.NP.Load::total      2519008                       (Unspecified)
board.cache_hierarchy.ruby_system.L1Cache_Controller.NP.Ifetch |      247488     12.27%     12.27% |      211759     10.50%     22.77% |      283323     14.05%     36.82% |      206849     10.26%     47.08% |      285757     14.17%     61.25% |      408925     20.28%     81.53% |      232076     11.51%     93.03% |      140489      6.97%    100.00% (Unspecified)
board.cache_hierarchy.ruby_system.L1Cache_Controller.NP.Ifetch::total      2016666                       (Unspecified)
board.cache_hierarchy.ruby_system.L1Cache_Controller.NP.Store |       82514     10.88%     10.88% |       71924      9.49%     20.37% |       96432     12.72%     33.09% |       83301     10.99%     44.08% |       74849      9.87%     53.95% |      126991     16.75%     70.70% |       87079     11.49%     82.18% |      135066     17.82%    100.00% (Unspecified)
board.cache_hierarchy.ruby_system.L1Cache_Controller.NP.Store::total       758156                       (Unspecified)
board.cache_hierarchy.ruby_system.L1Cache_Controller.NP.Inv |      128172     13.01%     13.01% |       99555     10.10%     23.11% |      150208     15.24%     38.35% |      109667     11.13%     49.48% |      148102     15.03%     64.51% |      164049     16.65%     81.16% |      121864     12.37%     93.52% |       63843      6.48%    100.00% (Unspecified)
board.cache_hierarchy.ruby_system.L1Cache_Controller.NP.Inv::total       985460                       (Unspecified)
board.cache_hierarchy.ruby_system.L1Cache_Controller.I.Load |       61158     12.89%     12.89% |       60821     12.82%     25.72% |       67042     14.14%     39.85% |       57052     12.03%     51.88% |       57412     12.10%     63.99% |       52971     11.17%     75.16% |       63557     13.40%     88.56% |       54274     11.44%    100.00% (Unspecified)
board.cache_hierarchy.ruby_system.L1Cache_Controller.I.Load::total       474287                       (Unspecified)
board.cache_hierarchy.ruby_system.L1Cache_Controller.I.Ifetch |       89041     13.25%     13.25% |       85718     12.76%     26.01% |       89673     13.34%     39.35% |       80937     12.04%     51.39% |       71600     10.65%     62.05% |       67672     10.07%     72.12% |       90323     13.44%     85.56% |       97034     14.44%    100.00% (Unspecified)
board.cache_hierarchy.ruby_system.L1Cache_Controller.I.Ifetch::total       671998                       (Unspecified)
board.cache_hierarchy.ruby_system.L1Cache_Controller.I.Store |       16203     13.98%     13.98% |       14489     12.50%     26.48% |       15029     12.97%     39.44% |       13347     11.51%     50.96% |       14815     12.78%     63.74% |       12488     10.77%     74.51% |       16453     14.19%     88.70% |       13094     11.30%    100.00% (Unspecified)
board.cache_hierarchy.ruby_system.L1Cache_Controller.I.Store::total       115918                       (Unspecified)
board.cache_hierarchy.ruby_system.L1Cache_Controller.I.Inv |           1    100.00%    100.00% |           0      0.00%    100.00% |           0      0.00%    100.00% |           0      0.00%    100.00% |           0      0.00%    100.00% |           0      0.00%    100.00% |           0      0.00%    100.00% |           0      0.00%    100.00% (Unspecified)
board.cache_hierarchy.ruby_system.L1Cache_Controller.I.Inv::total            1                       (Unspecified)
board.cache_hierarchy.ruby_system.L1Cache_Controller.I.L1_Replacement |      221749     13.45%     13.45% |      198925     12.07%     25.52% |      230976     14.01%     39.53% |      189308     11.48%     51.01% |      207157     12.57%     63.57% |      188747     11.45%     75.02% |      218933     13.28%     88.30% |      192841     11.70%    100.00% (Unspecified)
board.cache_hierarchy.ruby_system.L1Cache_Controller.I.L1_Replacement::total      1648636                       (Unspecified)
board.cache_hierarchy.ruby_system.L1Cache_Controller.S.Load |      925622     13.32%     13.32% |      848905     12.22%     25.54% |     1180430     16.99%     42.54% |      900278     12.96%     55.50% |      901731     12.98%     68.48% |      726525     10.46%     78.94% |      984371     14.17%     93.11% |      478873      6.89%    100.00% (Unspecified)
board.cache_hierarchy.ruby_system.L1Cache_Controller.S.Load::total      6946735                       (Unspecified)
board.cache_hierarchy.ruby_system.L1Cache_Controller.S.Ifetch |     6897436     10.70%     10.70% |     7995714     12.40%     23.10% |     8674670     13.46%     36.56% |     9205275     14.28%     50.84% |     6185024      9.60%     60.44% |    12601934     19.55%     79.99% |     8301110     12.88%     92.87% |     4597841      7.13%    100.00% (Unspecified)
board.cache_hierarchy.ruby_system.L1Cache_Controller.S.Ifetch::total     64459004                       (Unspecified)
board.cache_hierarchy.ruby_system.L1Cache_Controller.S.Store |        2963     10.45%     10.45% |        3003     10.60%     21.05% |        2805      9.90%     30.95% |        6209     21.91%     52.85% |        2661      9.39%     62.24% |        3367     11.88%     74.12% |        6142     21.67%     95.79% |        1192      4.21%    100.00% (Unspecified)
board.cache_hierarchy.ruby_system.L1Cache_Controller.S.Store::total        28342                       (Unspecified)
board.cache_hierarchy.ruby_system.L1Cache_Controller.S.Inv |      202026     13.37%     13.37% |      190422     12.60%     25.98% |      206432     13.66%     39.64% |      172201     11.40%     51.04% |      186942     12.37%     63.41% |      177098     11.72%     75.13% |      200133     13.25%     88.38% |      175568     11.62%    100.00% (Unspecified)
board.cache_hierarchy.ruby_system.L1Cache_Controller.S.Inv::total      1510822                       (Unspecified)
board.cache_hierarchy.ruby_system.L1Cache_Controller.S.L1_Replacement |      189953     11.79%     11.79% |      152626      9.47%     21.26% |      233996     14.52%     35.79% |      171316     10.63%     46.42% |      227188     14.10%     60.52% |      351853     21.84%     82.36% |      186811     11.59%     93.95% |       97423      6.05%    100.00% (Unspecified)
board.cache_hierarchy.ruby_system.L1Cache_Controller.S.L1_Replacement::total      1611166                       (Unspecified)
board.cache_hierarchy.ruby_system.L1Cache_Controller.E.Load |     1899680      7.67%      7.67% |     2969224     11.99%     19.66% |     2744145     11.08%     30.74% |     3034835     12.25%     42.99% |     1895056      7.65%     50.64% |     8449032     34.11%     84.76% |     2355115      9.51%     94.27% |     1419517      5.73%    100.00% (Unspecified)
board.cache_hierarchy.ruby_system.L1Cache_Controller.E.Load::total     24766604                       (Unspecified)
board.cache_hierarchy.ruby_system.L1Cache_Controller.E.Store |       72090     12.30%     12.30% |       65640     11.20%     23.50% |       82948     14.15%     37.64% |       74980     12.79%     50.44% |       61610     10.51%     60.95% |       86193     14.70%     75.65% |       74064     12.63%     88.28% |       68684     11.72%    100.00% (Unspecified)
board.cache_hierarchy.ruby_system.L1Cache_Controller.E.Store::total       586209                       (Unspecified)
board.cache_hierarchy.ruby_system.L1Cache_Controller.E.Inv |       88237     13.15%     13.15% |       85232     12.70%     25.84% |       98058     14.61%     40.45% |       81484     12.14%     52.59% |       79841     11.89%     64.49% |       74349     11.08%     75.56% |       89667     13.36%     88.92% |       74349     11.08%    100.00% (Unspecified)
board.cache_hierarchy.ruby_system.L1Cache_Controller.E.Inv::total       671217                       (Unspecified)
board.cache_hierarchy.ruby_system.L1Cache_Controller.E.L1_Replacement |       81327      6.26%      6.26% |       70242      5.41%     11.67% |      123821      9.53%     21.19% |       90171      6.94%     28.13% |       79170      6.09%     34.23% |      702529     54.07%     88.30% |       87384      6.73%     95.02% |       64701      4.98%    100.00% (Unspecified)
board.cache_hierarchy.ruby_system.L1Cache_Controller.E.L1_Replacement::total      1299345                       (Unspecified)
board.cache_hierarchy.ruby_system.L1Cache_Controller.E.Fwd_GETX |         119     11.52%     11.52% |         174     16.84%     28.36% |         103      9.97%     38.33% |         163     15.78%     54.11% |         146     14.13%     68.25% |         167     16.17%     84.41% |          66      6.39%     90.80% |          95      9.20%    100.00% (Unspecified)
board.cache_hierarchy.ruby_system.L1Cache_Controller.E.Fwd_GETX::total         1033                       (Unspecified)
board.cache_hierarchy.ruby_system.L1Cache_Controller.E.Fwd_GETS |        9730     13.01%     13.01% |        7964     10.65%     23.67% |       11167     14.94%     38.60% |        9264     12.39%     50.99% |        8873     11.87%     62.86% |        8334     11.15%     74.01% |       11933     15.96%     89.97% |        7501     10.03%    100.00% (Unspecified)
board.cache_hierarchy.ruby_system.L1Cache_Controller.E.Fwd_GETS::total        74766                       (Unspecified)
board.cache_hierarchy.ruby_system.L1Cache_Controller.E.Fwd_GET_INSTR |           0      0.00%      0.00% |           3     27.27%     27.27% |           2     18.18%     45.45% |           1      9.09%     54.55% |           0      0.00%     54.55% |           0      0.00%     54.55% |           3     27.27%     81.82% |           2     18.18%    100.00% (Unspecified)
board.cache_hierarchy.ruby_system.L1Cache_Controller.E.Fwd_GET_INSTR::total           11                       (Unspecified)
board.cache_hierarchy.ruby_system.L1Cache_Controller.M.Load |     4998704     10.17%     10.17% |     7104858     14.46%     24.63% |     6539418     13.31%     37.93% |     7400101     15.06%     52.99% |     4353144      8.86%     61.85% |     9436761     19.20%     81.05% |     6641192     13.51%     94.56% |     2674295      5.44%    100.00% (Unspecified)
board.cache_hierarchy.ruby_system.L1Cache_Controller.M.Load::total     49148473                       (Unspecified)
board.cache_hierarchy.ruby_system.L1Cache_Controller.M.Store |     5381325     10.63%     10.63% |     6575070     12.98%     23.61% |     6730784     13.29%     36.90% |     7043768     13.91%     50.81% |     4962745      9.80%     60.61% |     9219766     18.21%     78.82% |     6389877     12.62%     91.44% |     4335375      8.56%    100.00% (Unspecified)
board.cache_hierarchy.ruby_system.L1Cache_Controller.M.Store::total     50638710                       (Unspecified)
board.cache_hierarchy.ruby_system.L1Cache_Controller.M.Inv |       97101     13.48%     13.48% |       84121     11.68%     25.17% |       97883     13.59%     38.76% |       82363     11.44%     50.19% |       83985     11.66%     61.86% |       69982      9.72%     71.58% |       97006     13.47%     85.05% |      107691     14.95%    100.00% (Unspecified)
board.cache_hierarchy.ruby_system.L1Cache_Controller.M.Inv::total       720132                       (Unspecified)
board.cache_hierarchy.ruby_system.L1Cache_Controller.M.L1_Replacement |       72498      9.98%      9.98% |       66804      9.20%     19.17% |       95090     13.09%     32.26% |       85994     11.84%     44.10% |       66361      9.13%     53.23% |      154008     21.20%     74.43% |       77629     10.69%     85.12% |      108107     14.88%    100.00% (Unspecified)
board.cache_hierarchy.ruby_system.L1Cache_Controller.M.L1_Replacement::total       726491                       (Unspecified)
board.cache_hierarchy.ruby_system.L1Cache_Controller.M.Fwd_GETX |         788      5.75%      5.75% |         994      7.25%     12.99% |        1181      8.61%     21.60% |        4443     32.39%     54.00% |        1069      7.79%     61.79% |        1286      9.38%     71.17% |        3400     24.79%     95.95% |         555      4.05%    100.00% (Unspecified)
board.cache_hierarchy.ruby_system.L1Cache_Controller.M.Fwd_GETX::total        13716                       (Unspecified)
board.cache_hierarchy.ruby_system.L1Cache_Controller.M.Fwd_GETS |        3166     11.39%     11.39% |        3137     11.28%     22.67% |        3060     11.00%     33.67% |        4776     17.17%     50.85% |        2520      9.06%     59.91% |        3763     13.53%     73.44% |        5703     20.51%     93.95% |        1683      6.05%    100.00% (Unspecified)
board.cache_hierarchy.ruby_system.L1Cache_Controller.M.Fwd_GETS::total        27808                       (Unspecified)
board.cache_hierarchy.ruby_system.L1Cache_Controller.IS.Inv |           5      2.56%      2.56% |          23     11.79%     14.36% |          80     41.03%     55.38% |          48     24.62%     80.00% |          14      7.18%     87.18% |          13      6.67%     93.85% |          10      5.13%     98.97% |           2      1.03%    100.00% (Unspecified)
board.cache_hierarchy.ruby_system.L1Cache_Controller.IS.Inv::total          195                       (Unspecified)
board.cache_hierarchy.ruby_system.L1Cache_Controller.IS.L1_Replacement |          39      9.54%      9.54% |          39      9.54%     19.07% |          67     16.38%     35.45% |          65     15.89%     51.34% |          39      9.54%     60.88% |          53     12.96%     73.84% |          60     14.67%     88.51% |          47     11.49%    100.00% (Unspecified)
board.cache_hierarchy.ruby_system.L1Cache_Controller.IS.L1_Replacement::total          409                       (Unspecified)
board.cache_hierarchy.ruby_system.L1Cache_Controller.IS.Data_Exclusive |      251702      9.56%      9.56% |      229255      8.71%     18.27% |      316098     12.01%     30.27% |      256257      9.73%     40.00% |      229640      8.72%     48.73% |      871570     33.10%     81.83% |      263116      9.99%     91.82% |      215330      8.18%    100.00% (Unspecified)
board.cache_hierarchy.ruby_system.L1Cache_Controller.IS.Data_Exclusive::total      2632968                       (Unspecified)
board.cache_hierarchy.ruby_system.L1Cache_Controller.IS.DataS_fromL1 |       11651     11.36%     11.36% |       12428     12.11%     23.47% |       14946     14.57%     38.04% |       16106     15.70%     53.74% |       13019     12.69%     66.43% |       11233     10.95%     77.38% |       15596     15.20%     92.58% |        7610      7.42%    100.00% (Unspecified)
board.cache_hierarchy.ruby_system.L1Cache_Controller.IS.DataS_fromL1::total       102589                       (Unspecified)
board.cache_hierarchy.ruby_system.L1Cache_Controller.IS.Data_all_Acks |      370878     12.59%     12.59% |      322530     10.95%     23.54% |      414066     14.05%     37.59% |      320089     10.86%     48.45% |      392390     13.32%     61.77% |      508997     17.28%     79.05% |      359860     12.21%     91.26% |      257396      8.74%    100.00% (Unspecified)
board.cache_hierarchy.ruby_system.L1Cache_Controller.IS.Data_all_Acks::total      2946206                       (Unspecified)
board.cache_hierarchy.ruby_system.L1Cache_Controller.IM.Inv |           0      0.00%      0.00% |           0      0.00%      0.00% |           0      0.00%      0.00% |          33     40.24%     40.24% |           0      0.00%     40.24% |           0      0.00%     40.24% |          49     59.76%    100.00% |           0      0.00%    100.00% (Unspecified)
board.cache_hierarchy.ruby_system.L1Cache_Controller.IM.Inv::total           82                       (Unspecified)
board.cache_hierarchy.ruby_system.L1Cache_Controller.IM.L1_Replacement |           6      8.96%      8.96% |           6      8.96%     17.91% |          14     20.90%     38.81% |          10     14.93%     53.73% |          10     14.93%     68.66% |           3      4.48%     73.13% |          10     14.93%     88.06% |           8     11.94%    100.00% (Unspecified)
board.cache_hierarchy.ruby_system.L1Cache_Controller.IM.L1_Replacement::total           67                       (Unspecified)
board.cache_hierarchy.ruby_system.L1Cache_Controller.IM.Data |         277     13.48%     13.48% |         132      6.42%     19.90% |         116      5.64%     25.55% |         543     26.42%     51.97% |         150      7.30%     59.27% |         263     12.80%     72.07% |         539     26.23%     98.30% |          35      1.70%    100.00% (Unspecified)
board.cache_hierarchy.ruby_system.L1Cache_Controller.IM.Data::total         2055                       (Unspecified)
board.cache_hierarchy.ruby_system.L1Cache_Controller.IM.Data_all_Acks |       98469     11.27%     11.27% |       86326      9.88%     21.15% |      111417     12.75%     33.90% |       96579     11.05%     44.95% |       89595     10.25%     55.20% |      139295     15.94%     71.14% |      104053     11.91%     83.05% |      148131     16.95%    100.00% (Unspecified)
board.cache_hierarchy.ruby_system.L1Cache_Controller.IM.Data_all_Acks::total       873865                       (Unspecified)
board.cache_hierarchy.ruby_system.L1Cache_Controller.SM.Inv |          29      1.57%      1.57% |          45      2.44%      4.01% |          72      3.90%      7.91% |         474     25.68%     33.59% |          81      4.39%     37.97% |          79      4.28%     42.25% |        1060     57.42%     99.67% |           6      0.33%    100.00% (Unspecified)
board.cache_hierarchy.ruby_system.L1Cache_Controller.SM.Inv::total         1846                       (Unspecified)
board.cache_hierarchy.ruby_system.L1Cache_Controller.SM.Ack |        4515     14.05%     14.05% |        3416     10.63%     24.68% |        3482     10.84%     35.52% |        6552     20.39%     55.91% |        3058      9.52%     65.43% |        3915     12.18%     77.61% |        5594     17.41%     95.02% |        1599      4.98%    100.00% (Unspecified)
board.cache_hierarchy.ruby_system.L1Cache_Controller.SM.Ack::total        32131                       (Unspecified)
board.cache_hierarchy.ruby_system.L1Cache_Controller.SM.Ack_all |        3211     11.25%     11.25% |        3090     10.82%     22.07% |        2849      9.98%     32.05% |        6278     21.99%     54.04% |        2730      9.56%     63.60% |        3551     12.44%     76.04% |        5621     19.69%     95.72% |        1221      4.28%    100.00% (Unspecified)
board.cache_hierarchy.ruby_system.L1Cache_Controller.SM.Ack_all::total        28551                       (Unspecified)
board.cache_hierarchy.ruby_system.L1Cache_Controller.IS_I.Data_Exclusive |           0      0.00%      0.00% |           0      0.00%      0.00% |           1     16.67%     16.67% |           0      0.00%     16.67% |           0      0.00%     16.67% |           2     33.33%     50.00% |           1     16.67%     66.67% |           2     33.33%    100.00% (Unspecified)
board.cache_hierarchy.ruby_system.L1Cache_Controller.IS_I.Data_Exclusive::total            6                       (Unspecified)
board.cache_hierarchy.ruby_system.L1Cache_Controller.IS_I.DataS_fromL1 |           0      0.00%      0.00% |           0      0.00%      0.00% |           0      0.00%      0.00% |           0      0.00%      0.00% |           0      0.00%      0.00% |           0      0.00%      0.00% |           3    100.00%    100.00% |           0      0.00%    100.00% (Unspecified)
board.cache_hierarchy.ruby_system.L1Cache_Controller.IS_I.DataS_fromL1::total            3                       (Unspecified)
board.cache_hierarchy.ruby_system.L1Cache_Controller.IS_I.Data_all_Acks |           5      2.69%      2.69% |          23     12.37%     15.05% |          79     42.47%     57.53% |          48     25.81%     83.33% |          14      7.53%     90.86% |          11      5.91%     96.77% |           6      3.23%    100.00% |           0      0.00%    100.00% (Unspecified)
board.cache_hierarchy.ruby_system.L1Cache_Controller.IS_I.Data_all_Acks::total          186                       (Unspecified)
board.cache_hierarchy.ruby_system.L1Cache_Controller.M_I.Load |          17      3.53%      3.53% |          11      2.29%      5.82% |          20      4.16%      9.98% |          23      4.78%     14.76% |          15      3.12%     17.88% |         371     77.13%     95.01% |          14      2.91%     97.92% |          10      2.08%    100.00% (Unspecified)
board.cache_hierarchy.ruby_system.L1Cache_Controller.M_I.Load::total          481                       (Unspecified)
board.cache_hierarchy.ruby_system.L1Cache_Controller.M_I.Ifetch |           1      3.70%      3.70% |           2      7.41%     11.11% |          10     37.04%     48.15% |           3     11.11%     59.26% |           4     14.81%     74.07% |           3     11.11%     85.19% |           4     14.81%    100.00% |           0      0.00%    100.00% (Unspecified)
board.cache_hierarchy.ruby_system.L1Cache_Controller.M_I.Ifetch::total           27                       (Unspecified)
board.cache_hierarchy.ruby_system.L1Cache_Controller.M_I.Store |           4      7.55%      7.55% |           1      1.89%      9.43% |           2      3.77%     13.21% |           3      5.66%     18.87% |           0      0.00%     18.87% |          38     71.70%     90.57% |           2      3.77%     94.34% |           3      5.66%    100.00% (Unspecified)
board.cache_hierarchy.ruby_system.L1Cache_Controller.M_I.Store::total           53                       (Unspecified)
board.cache_hierarchy.ruby_system.L1Cache_Controller.M_I.Inv |          26     10.36%     10.36% |          22      8.76%     19.12% |          34     13.55%     32.67% |          43     17.13%     49.80% |          45     17.93%     67.73% |          28     11.16%     78.88% |          39     15.54%     94.42% |          14      5.58%    100.00% (Unspecified)
board.cache_hierarchy.ruby_system.L1Cache_Controller.M_I.Inv::total          251                       (Unspecified)
board.cache_hierarchy.ruby_system.L1Cache_Controller.M_I.Fwd_GETS |           3     42.86%     42.86% |           0      0.00%     42.86% |           0      0.00%     42.86% |           1     14.29%     57.14% |           1     14.29%     71.43% |           0      0.00%     71.43% |           2     28.57%    100.00% |           0      0.00%    100.00% (Unspecified)
board.cache_hierarchy.ruby_system.L1Cache_Controller.M_I.Fwd_GETS::total            7                       (Unspecified)
board.cache_hierarchy.ruby_system.L1Cache_Controller.M_I.WB_Ack |      153796      7.59%      7.59% |      137024      6.76%     14.36% |      218877     10.81%     25.16% |      176120      8.69%     33.86% |      145485      7.18%     41.04% |      856509     42.28%     83.32% |      164972      8.14%     91.47% |      172794      8.53%    100.00% (Unspecified)
board.cache_hierarchy.ruby_system.L1Cache_Controller.M_I.WB_Ack::total      2025577                       (Unspecified)
board.cache_hierarchy.ruby_system.L1Cache_Controller.SINK_WB_ACK.WB_Ack |          29     11.24%     11.24% |          22      8.53%     19.77% |          34     13.18%     32.95% |          44     17.05%     50.00% |          46     17.83%     67.83% |          28     10.85%     78.68% |          41     15.89%     94.57% |          14      5.43%    100.00% (Unspecified)
board.cache_hierarchy.ruby_system.L1Cache_Controller.SINK_WB_ACK.WB_Ack::total          258                       (Unspecified)
board.cache_hierarchy.ruby_system.L2Cache_Controller.L1_GET_INSTR      2690971      0.00%      0.00% (Unspecified)
board.cache_hierarchy.ruby_system.L2Cache_Controller.L1_GETS      3002984      0.00%      0.00% (Unspecified)
board.cache_hierarchy.ruby_system.L2Cache_Controller.L1_GETX       879687      0.00%      0.00% (Unspecified)
board.cache_hierarchy.ruby_system.L2Cache_Controller.L1_UPGRADE        28629      0.00%      0.00% (Unspecified)
board.cache_hierarchy.ruby_system.L2Cache_Controller.L1_PUTX      2025592      0.00%      0.00% (Unspecified)
board.cache_hierarchy.ruby_system.L2Cache_Controller.L1_PUTX_old          488      0.00%      0.00% (Unspecified)
board.cache_hierarchy.ruby_system.L2Cache_Controller.L2_Replacement       665311      0.00%      0.00% (Unspecified)
board.cache_hierarchy.ruby_system.L2Cache_Controller.L2_Replacement_clean      3366804      0.00%      0.00% (Unspecified)
board.cache_hierarchy.ruby_system.L2Cache_Controller.Mem_Data      4036294      0.00%      0.00% (Unspecified)
board.cache_hierarchy.ruby_system.L2Cache_Controller.Mem_Ack      4032198      0.00%      0.00% (Unspecified)
board.cache_hierarchy.ruby_system.L2Cache_Controller.WB_Data       748068      0.00%      0.00% (Unspecified)
board.cache_hierarchy.ruby_system.L2Cache_Controller.WB_Data_clean        74907      0.00%      0.00% (Unspecified)
board.cache_hierarchy.ruby_system.L2Cache_Controller.Ack      1068782      0.00%      0.00% (Unspecified)
board.cache_hierarchy.ruby_system.L2Cache_Controller.Ack_all      2066655      0.00%      0.00% (Unspecified)
board.cache_hierarchy.ruby_system.L2Cache_Controller.Unblock       102592      0.00%      0.00% (Unspecified)
board.cache_hierarchy.ruby_system.L2Cache_Controller.Exclusive_Unblock      3535390      0.00%      0.00% (Unspecified)
board.cache_hierarchy.ruby_system.L2Cache_Controller.MEM_Inv          168      0.00%      0.00% (Unspecified)
board.cache_hierarchy.ruby_system.L2Cache_Controller.NP.L1_GET_INSTR      1301949      0.00%      0.00% (Unspecified)
board.cache_hierarchy.ruby_system.L2Cache_Controller.NP.L1_GETS      1933870      0.00%      0.00% (Unspecified)
board.cache_hierarchy.ruby_system.L2Cache_Controller.NP.L1_GETX       800476      0.00%      0.00% (Unspecified)
board.cache_hierarchy.ruby_system.L2Cache_Controller.NP.L1_PUTX_old          237      0.00%      0.00% (Unspecified)
board.cache_hierarchy.ruby_system.L2Cache_Controller.SS.L1_GET_INSTR      1298202      0.00%      0.00% (Unspecified)
board.cache_hierarchy.ruby_system.L2Cache_Controller.SS.L1_GETS       205487      0.00%      0.00% (Unspecified)
board.cache_hierarchy.ruby_system.L2Cache_Controller.SS.L1_GETX         2055      0.00%      0.00% (Unspecified)
board.cache_hierarchy.ruby_system.L2Cache_Controller.SS.L1_UPGRADE        26496      0.00%      0.00% (Unspecified)
board.cache_hierarchy.ruby_system.L2Cache_Controller.SS.L1_PUTX            7      0.00%      0.00% (Unspecified)
board.cache_hierarchy.ruby_system.L2Cache_Controller.SS.L2_Replacement         7210      0.00%      0.00% (Unspecified)
board.cache_hierarchy.ruby_system.L2Cache_Controller.SS.L2_Replacement_clean      1388228      0.00%      0.00% (Unspecified)
board.cache_hierarchy.ruby_system.L2Cache_Controller.M.L1_GET_INSTR           38      0.00%      0.00% (Unspecified)
board.cache_hierarchy.ruby_system.L2Cache_Controller.M.L1_GETS       719807      0.00%      0.00% (Unspecified)
board.cache_hierarchy.ruby_system.L2Cache_Controller.M.L1_GETX        58640      0.00%      0.00% (Unspecified)
board.cache_hierarchy.ruby_system.L2Cache_Controller.M.L2_Replacement       627982      0.00%      0.00% (Unspecified)
board.cache_hierarchy.ruby_system.L2Cache_Controller.M.L2_Replacement_clean       617173      0.00%      0.00% (Unspecified)
board.cache_hierarchy.ruby_system.L2Cache_Controller.M.MEM_Inv            6      0.00%      0.00% (Unspecified)
board.cache_hierarchy.ruby_system.L2Cache_Controller.MT.L1_GET_INSTR           11      0.00%      0.00% (Unspecified)
board.cache_hierarchy.ruby_system.L2Cache_Controller.MT.L1_GETS       102581      0.00%      0.00% (Unspecified)
board.cache_hierarchy.ruby_system.L2Cache_Controller.MT.L1_GETX        14749      0.00%      0.00% (Unspecified)
board.cache_hierarchy.ruby_system.L2Cache_Controller.MT.L1_PUTX      2025578      0.00%      0.00% (Unspecified)
board.cache_hierarchy.ruby_system.L2Cache_Controller.MT.L2_Replacement        30119      0.00%      0.00% (Unspecified)
board.cache_hierarchy.ruby_system.L2Cache_Controller.MT.L2_Replacement_clean      1361403      0.00%      0.00% (Unspecified)
board.cache_hierarchy.ruby_system.L2Cache_Controller.MT.MEM_Inv           78      0.00%      0.00% (Unspecified)
board.cache_hierarchy.ruby_system.L2Cache_Controller.M_I.L1_GET_INSTR         2261      0.00%      0.00% (Unspecified)
board.cache_hierarchy.ruby_system.L2Cache_Controller.M_I.L1_GETS         4108      0.00%      0.00% (Unspecified)
board.cache_hierarchy.ruby_system.L2Cache_Controller.M_I.L1_GETX         1846      0.00%      0.00% (Unspecified)
board.cache_hierarchy.ruby_system.L2Cache_Controller.M_I.L1_PUTX_old           14      0.00%      0.00% (Unspecified)
board.cache_hierarchy.ruby_system.L2Cache_Controller.M_I.Mem_Ack      4032198      0.00%      0.00% (Unspecified)
board.cache_hierarchy.ruby_system.L2Cache_Controller.M_I.MEM_Inv            6      0.00%      0.00% (Unspecified)
board.cache_hierarchy.ruby_system.L2Cache_Controller.MT_I.L1_PUTX_old            6      0.00%      0.00% (Unspecified)
board.cache_hierarchy.ruby_system.L2Cache_Controller.MT_I.WB_Data        24903      0.00%      0.00% (Unspecified)
board.cache_hierarchy.ruby_system.L2Cache_Controller.MT_I.WB_Data_clean            2      0.00%      0.00% (Unspecified)
board.cache_hierarchy.ruby_system.L2Cache_Controller.MT_I.Ack_all         5292      0.00%      0.00% (Unspecified)
board.cache_hierarchy.ruby_system.L2Cache_Controller.MT_I.MEM_Inv           78      0.00%      0.00% (Unspecified)
board.cache_hierarchy.ruby_system.L2Cache_Controller.MCT_I.L1_GETS           11      0.00%      0.00% (Unspecified)
board.cache_hierarchy.ruby_system.L2Cache_Controller.MCT_I.L1_GETX            1      0.00%      0.00% (Unspecified)
board.cache_hierarchy.ruby_system.L2Cache_Controller.MCT_I.L1_PUTX_old          231      0.00%      0.00% (Unspecified)
board.cache_hierarchy.ruby_system.L2Cache_Controller.MCT_I.WB_Data       695356      0.00%      0.00% (Unspecified)
board.cache_hierarchy.ruby_system.L2Cache_Controller.MCT_I.WB_Data_clean          122      0.00%      0.00% (Unspecified)
board.cache_hierarchy.ruby_system.L2Cache_Controller.MCT_I.Ack_all       665925      0.00%      0.00% (Unspecified)
board.cache_hierarchy.ruby_system.L2Cache_Controller.I_I.L1_GET_INSTR           46      0.00%      0.00% (Unspecified)
board.cache_hierarchy.ruby_system.L2Cache_Controller.I_I.L1_GETS           12      0.00%      0.00% (Unspecified)
board.cache_hierarchy.ruby_system.L2Cache_Controller.I_I.Ack      1057869      0.00%      0.00% (Unspecified)
board.cache_hierarchy.ruby_system.L2Cache_Controller.I_I.Ack_all      1388228      0.00%      0.00% (Unspecified)
board.cache_hierarchy.ruby_system.L2Cache_Controller.S_I.Ack        10913      0.00%      0.00% (Unspecified)
board.cache_hierarchy.ruby_system.L2Cache_Controller.S_I.Ack_all         7210      0.00%      0.00% (Unspecified)
board.cache_hierarchy.ruby_system.L2Cache_Controller.ISS.L1_GETS        20702      0.00%      0.00% (Unspecified)
board.cache_hierarchy.ruby_system.L2Cache_Controller.ISS.L1_GETX           25      0.00%      0.00% (Unspecified)
board.cache_hierarchy.ruby_system.L2Cache_Controller.ISS.Mem_Data      1913167      0.00%      0.00% (Unspecified)
board.cache_hierarchy.ruby_system.L2Cache_Controller.IS.L1_GET_INSTR        88464      0.00%      0.00% (Unspecified)
board.cache_hierarchy.ruby_system.L2Cache_Controller.IS.L1_GETS        10848      0.00%      0.00% (Unspecified)
board.cache_hierarchy.ruby_system.L2Cache_Controller.IS.L1_GETX            2      0.00%      0.00% (Unspecified)
board.cache_hierarchy.ruby_system.L2Cache_Controller.IS.Mem_Data      1322651      0.00%      0.00% (Unspecified)
board.cache_hierarchy.ruby_system.L2Cache_Controller.IM.L1_GETS           23      0.00%      0.00% (Unspecified)
board.cache_hierarchy.ruby_system.L2Cache_Controller.IM.L1_GETX         1009      0.00%      0.00% (Unspecified)
board.cache_hierarchy.ruby_system.L2Cache_Controller.IM.Mem_Data       800476      0.00%      0.00% (Unspecified)
board.cache_hierarchy.ruby_system.L2Cache_Controller.SS_MB.L1_GETS         2241      0.00%      0.00% (Unspecified)
board.cache_hierarchy.ruby_system.L2Cache_Controller.SS_MB.L1_GETX          284      0.00%      0.00% (Unspecified)
board.cache_hierarchy.ruby_system.L2Cache_Controller.SS_MB.L1_UPGRADE         1846      0.00%      0.00% (Unspecified)
board.cache_hierarchy.ruby_system.L2Cache_Controller.SS_MB.Exclusive_Unblock        28551      0.00%      0.00% (Unspecified)
board.cache_hierarchy.ruby_system.L2Cache_Controller.MT_MB.L1_GETS          976      0.00%      0.00% (Unspecified)
board.cache_hierarchy.ruby_system.L2Cache_Controller.MT_MB.L1_GETX          538      0.00%      0.00% (Unspecified)
board.cache_hierarchy.ruby_system.L2Cache_Controller.MT_MB.Exclusive_Unblock      3506839      0.00%      0.00% (Unspecified)
board.cache_hierarchy.ruby_system.L2Cache_Controller.MT_IIB.L1_GETS         2156      0.00%      0.00% (Unspecified)
board.cache_hierarchy.ruby_system.L2Cache_Controller.MT_IIB.L1_GETX           46      0.00%      0.00% (Unspecified)
board.cache_hierarchy.ruby_system.L2Cache_Controller.MT_IIB.L1_UPGRADE            1      0.00%      0.00% (Unspecified)
board.cache_hierarchy.ruby_system.L2Cache_Controller.MT_IIB.L1_PUTX            7      0.00%      0.00% (Unspecified)
board.cache_hierarchy.ruby_system.L2Cache_Controller.MT_IIB.WB_Data        27229      0.00%      0.00% (Unspecified)
board.cache_hierarchy.ruby_system.L2Cache_Controller.MT_IIB.WB_Data_clean        73367      0.00%      0.00% (Unspecified)
board.cache_hierarchy.ruby_system.L2Cache_Controller.MT_IIB.Unblock         1996      0.00%      0.00% (Unspecified)
board.cache_hierarchy.ruby_system.L2Cache_Controller.MT_IB.WB_Data          580      0.00%      0.00% (Unspecified)
board.cache_hierarchy.ruby_system.L2Cache_Controller.MT_IB.WB_Data_clean         1416      0.00%      0.00% (Unspecified)
board.cache_hierarchy.ruby_system.L2Cache_Controller.MT_SB.L1_GETS          162      0.00%      0.00% (Unspecified)
board.cache_hierarchy.ruby_system.L2Cache_Controller.MT_SB.L1_GETX           16      0.00%      0.00% (Unspecified)
board.cache_hierarchy.ruby_system.L2Cache_Controller.MT_SB.L1_UPGRADE          286      0.00%      0.00% (Unspecified)
board.cache_hierarchy.ruby_system.L2Cache_Controller.MT_SB.Unblock       100596      0.00%      0.00% (Unspecified)
board.cache_hierarchy.ruby_system.RequestType.LD.latency_hist_seqr::bucket_size         1024                       (Unspecified)
board.cache_hierarchy.ruby_system.RequestType.LD.latency_hist_seqr::max_bucket        10239                       (Unspecified)
board.cache_hierarchy.ruby_system.RequestType.LD.latency_hist_seqr::samples     83406179                       (Unspecified)
board.cache_hierarchy.ruby_system.RequestType.LD.latency_hist_seqr::mean     8.824507                       (Unspecified)
board.cache_hierarchy.ruby_system.RequestType.LD.latency_hist_seqr::gmean     1.181387                       (Unspecified)
board.cache_hierarchy.ruby_system.RequestType.LD.latency_hist_seqr::stdev    56.333160                       (Unspecified)
board.cache_hierarchy.ruby_system.RequestType.LD.latency_hist_seqr |    83382168     99.97%     99.97% |       23831      0.03%    100.00% |         136      0.00%    100.00% |          12      0.00%    100.00% |           8      0.00%    100.00% |           4      0.00%    100.00% |           5      0.00%    100.00% |           5      0.00%    100.00% |           1      0.00%    100.00% |           9      0.00%    100.00% (Unspecified)
board.cache_hierarchy.ruby_system.RequestType.LD.latency_hist_seqr::total     83406179                       (Unspecified)
board.cache_hierarchy.ruby_system.RequestType.LD.hit_latency_hist_seqr::bucket_size            1                       (Unspecified)
board.cache_hierarchy.ruby_system.RequestType.LD.hit_latency_hist_seqr::max_bucket            9                       (Unspecified)
board.cache_hierarchy.ruby_system.RequestType.LD.hit_latency_hist_seqr::samples     80434622                       (Unspecified)
board.cache_hierarchy.ruby_system.RequestType.LD.hit_latency_hist_seqr::mean     1.000943                       (Unspecified)
board.cache_hierarchy.ruby_system.RequestType.LD.hit_latency_hist_seqr::gmean     1.000654                       (Unspecified)
board.cache_hierarchy.ruby_system.RequestType.LD.hit_latency_hist_seqr::stdev     0.030743                       (Unspecified)
board.cache_hierarchy.ruby_system.RequestType.LD.hit_latency_hist_seqr |           0      0.00%      0.00% |    80358840     99.91%     99.91% |       75679      0.09%    100.00% |         103      0.00%    100.00% |           0      0.00%    100.00% |           0      0.00%    100.00% |           0      0.00%    100.00% |           0      0.00%    100.00% |           0      0.00%    100.00% |           0      0.00%    100.00% (Unspecified)
board.cache_hierarchy.ruby_system.RequestType.LD.hit_latency_hist_seqr::total     80434622                       (Unspecified)
board.cache_hierarchy.ruby_system.RequestType.LD.miss_latency_hist_seqr::bucket_size         1024                       (Unspecified)
board.cache_hierarchy.ruby_system.RequestType.LD.miss_latency_hist_seqr::max_bucket        10239                       (Unspecified)
board.cache_hierarchy.ruby_system.RequestType.LD.miss_latency_hist_seqr::samples      2971557                       (Unspecified)
board.cache_hierarchy.ruby_system.RequestType.LD.miss_latency_hist_seqr::mean   220.594088                       (Unspecified)
board.cache_hierarchy.ruby_system.RequestType.LD.miss_latency_hist_seqr::gmean   105.737598                       (Unspecified)
board.cache_hierarchy.ruby_system.RequestType.LD.miss_latency_hist_seqr::stdev   206.322761                       (Unspecified)
board.cache_hierarchy.ruby_system.RequestType.LD.miss_latency_hist_seqr |     2947546     99.19%     99.19% |       23831      0.80%     99.99% |         136      0.00%    100.00% |          12      0.00%    100.00% |           8      0.00%    100.00% |           4      0.00%    100.00% |           5      0.00%    100.00% |           5      0.00%    100.00% |           1      0.00%    100.00% |           9      0.00%    100.00% (Unspecified)
board.cache_hierarchy.ruby_system.RequestType.LD.miss_latency_hist_seqr::total      2971557                       (Unspecified)
board.cache_hierarchy.ruby_system.RequestType.ST.latency_hist_seqr::bucket_size         2048                       (Unspecified)
board.cache_hierarchy.ruby_system.RequestType.ST.latency_hist_seqr::max_bucket        20479                       (Unspecified)
board.cache_hierarchy.ruby_system.RequestType.ST.latency_hist_seqr::samples     49347604                       (Unspecified)
board.cache_hierarchy.ruby_system.RequestType.ST.latency_hist_seqr::mean     5.413703                       (Unspecified)
board.cache_hierarchy.ruby_system.RequestType.ST.latency_hist_seqr::gmean     1.108748                       (Unspecified)
board.cache_hierarchy.ruby_system.RequestType.ST.latency_hist_seqr::stdev    41.936594                       (Unspecified)
board.cache_hierarchy.ruby_system.RequestType.ST.latency_hist_seqr |    49347563    100.00%    100.00% |          35      0.00%    100.00% |           2      0.00%    100.00% |           1      0.00%    100.00% |           2      0.00%    100.00% |           1      0.00%    100.00% |           0      0.00%    100.00% |           0      0.00%    100.00% |           0      0.00%    100.00% |           0      0.00%    100.00% (Unspecified)
board.cache_hierarchy.ruby_system.RequestType.ST.latency_hist_seqr::total     49347604                       (Unspecified)
board.cache_hierarchy.ruby_system.RequestType.ST.hit_latency_hist_seqr::bucket_size          256                       (Unspecified)
board.cache_hierarchy.ruby_system.RequestType.ST.hit_latency_hist_seqr::max_bucket         2559                       (Unspecified)
board.cache_hierarchy.ruby_system.RequestType.ST.hit_latency_hist_seqr::samples     48605096                       (Unspecified)
board.cache_hierarchy.ruby_system.RequestType.ST.hit_latency_hist_seqr::mean     1.064910                       (Unspecified)
board.cache_hierarchy.ruby_system.RequestType.ST.hit_latency_hist_seqr::gmean     1.022184                       (Unspecified)
board.cache_hierarchy.ruby_system.RequestType.ST.hit_latency_hist_seqr::stdev     3.598830                       (Unspecified)
board.cache_hierarchy.ruby_system.RequestType.ST.hit_latency_hist_seqr |    48602553     99.99%     99.99% |        2066      0.00%    100.00% |         364      0.00%    100.00% |          56      0.00%    100.00% |          43      0.00%    100.00% |          12      0.00%    100.00% |           2      0.00%    100.00% |           0      0.00%    100.00% |           0      0.00%    100.00% |           0      0.00%    100.00% (Unspecified)
board.cache_hierarchy.ruby_system.RequestType.ST.hit_latency_hist_seqr::total     48605096                       (Unspecified)
board.cache_hierarchy.ruby_system.RequestType.ST.miss_latency_hist_seqr::bucket_size         2048                       (Unspecified)
board.cache_hierarchy.ruby_system.RequestType.ST.miss_latency_hist_seqr::max_bucket        20479                       (Unspecified)
board.cache_hierarchy.ruby_system.RequestType.ST.miss_latency_hist_seqr::samples       742508                       (Unspecified)
board.cache_hierarchy.ruby_system.RequestType.ST.miss_latency_hist_seqr::mean   290.088736                       (Unspecified)
board.cache_hierarchy.ruby_system.RequestType.ST.miss_latency_hist_seqr::gmean   226.915867                       (Unspecified)
board.cache_hierarchy.ruby_system.RequestType.ST.miss_latency_hist_seqr::stdev   183.731669                       (Unspecified)
board.cache_hierarchy.ruby_system.RequestType.ST.miss_latency_hist_seqr |      742467     99.99%     99.99% |          35      0.00%    100.00% |           2      0.00%    100.00% |           1      0.00%    100.00% |           2      0.00%    100.00% |           1      0.00%    100.00% |           0      0.00%    100.00% |           0      0.00%    100.00% |           0      0.00%    100.00% |           0      0.00%    100.00% (Unspecified)
board.cache_hierarchy.ruby_system.RequestType.ST.miss_latency_hist_seqr::total       742508                       (Unspecified)
board.cache_hierarchy.ruby_system.RequestType.IFETCH.latency_hist_seqr::bucket_size         1024                       (Unspecified)
board.cache_hierarchy.ruby_system.RequestType.IFETCH.latency_hist_seqr::max_bucket        10239                       (Unspecified)
board.cache_hierarchy.ruby_system.RequestType.IFETCH.latency_hist_seqr::samples     66684637                       (Unspecified)
board.cache_hierarchy.ruby_system.RequestType.IFETCH.latency_hist_seqr::mean     7.695519                       (Unspecified)
board.cache_hierarchy.ruby_system.RequestType.IFETCH.latency_hist_seqr::gmean     1.180972                       (Unspecified)
board.cache_hierarchy.ruby_system.RequestType.IFETCH.latency_hist_seqr::stdev    50.603622                       (Unspecified)
board.cache_hierarchy.ruby_system.RequestType.IFETCH.latency_hist_seqr |    66669056     99.98%     99.98% |       15459      0.02%    100.00% |         100      0.00%    100.00% |           8      0.00%    100.00% |           7      0.00%    100.00% |           2      0.00%    100.00% |           3      0.00%    100.00% |           0      0.00%    100.00% |           1      0.00%    100.00% |           1      0.00%    100.00% (Unspecified)
board.cache_hierarchy.ruby_system.RequestType.IFETCH.latency_hist_seqr::total     66684637                       (Unspecified)
board.cache_hierarchy.ruby_system.RequestType.IFETCH.hit_latency_hist_seqr::bucket_size            1                       (Unspecified)
board.cache_hierarchy.ruby_system.RequestType.IFETCH.hit_latency_hist_seqr::max_bucket            9                       (Unspecified)
board.cache_hierarchy.ruby_system.RequestType.IFETCH.hit_latency_hist_seqr::samples     64030217                       (Unspecified)
board.cache_hierarchy.ruby_system.RequestType.IFETCH.hit_latency_hist_seqr::mean     1.000004                       (Unspecified)
board.cache_hierarchy.ruby_system.RequestType.IFETCH.hit_latency_hist_seqr::gmean     1.000003                       (Unspecified)
board.cache_hierarchy.ruby_system.RequestType.IFETCH.hit_latency_hist_seqr::stdev     0.001944                       (Unspecified)
board.cache_hierarchy.ruby_system.RequestType.IFETCH.hit_latency_hist_seqr |           0      0.00%      0.00% |    64029975    100.00%    100.00% |         242      0.00%    100.00% |           0      0.00%    100.00% |           0      0.00%    100.00% |           0      0.00%    100.00% |           0      0.00%    100.00% |           0      0.00%    100.00% |           0      0.00%    100.00% |           0      0.00%    100.00% (Unspecified)
board.cache_hierarchy.ruby_system.RequestType.IFETCH.hit_latency_hist_seqr::total     64030217                       (Unspecified)
board.cache_hierarchy.ruby_system.RequestType.IFETCH.miss_latency_hist_seqr::bucket_size         1024                       (Unspecified)
board.cache_hierarchy.ruby_system.RequestType.IFETCH.miss_latency_hist_seqr::max_bucket        10239                       (Unspecified)
board.cache_hierarchy.ruby_system.RequestType.IFETCH.miss_latency_hist_seqr::samples      2654420                       (Unspecified)
board.cache_hierarchy.ruby_system.RequestType.IFETCH.miss_latency_hist_seqr::mean   169.205485                       (Unspecified)
board.cache_hierarchy.ruby_system.RequestType.IFETCH.miss_latency_hist_seqr::gmean    65.280822                       (Unspecified)
board.cache_hierarchy.ruby_system.RequestType.IFETCH.miss_latency_hist_seqr::stdev   192.779695                       (Unspecified)
board.cache_hierarchy.ruby_system.RequestType.IFETCH.miss_latency_hist_seqr |     2638839     99.41%     99.41% |       15459      0.58%    100.00% |         100      0.00%    100.00% |           8      0.00%    100.00% |           7      0.00%    100.00% |           2      0.00%    100.00% |           3      0.00%    100.00% |           0      0.00%    100.00% |           1      0.00%    100.00% |           1      0.00%    100.00% (Unspecified)
board.cache_hierarchy.ruby_system.RequestType.IFETCH.miss_latency_hist_seqr::total      2654420                       (Unspecified)
board.cache_hierarchy.ruby_system.RequestType.RMW_Read.latency_hist_seqr::bucket_size         1024                       (Unspecified)
board.cache_hierarchy.ruby_system.RequestType.RMW_Read.latency_hist_seqr::max_bucket        10239                       (Unspecified)
board.cache_hierarchy.ruby_system.RequestType.RMW_Read.latency_hist_seqr::samples      1021577                       (Unspecified)
board.cache_hierarchy.ruby_system.RequestType.RMW_Read.latency_hist_seqr::mean    15.152190                       (Unspecified)
board.cache_hierarchy.ruby_system.RequestType.RMW_Read.latency_hist_seqr::gmean     1.357201                       (Unspecified)
board.cache_hierarchy.ruby_system.RequestType.RMW_Read.latency_hist_seqr::stdev    76.684196                       (Unspecified)
board.cache_hierarchy.ruby_system.RequestType.RMW_Read.latency_hist_seqr |     1020955     99.94%     99.94% |         614      0.06%    100.00% |           7      0.00%    100.00% |           0      0.00%    100.00% |           0      0.00%    100.00% |           1      0.00%    100.00% |           0      0.00%    100.00% |           0      0.00%    100.00% |           0      0.00%    100.00% |           0      0.00%    100.00% (Unspecified)
board.cache_hierarchy.ruby_system.RequestType.RMW_Read.latency_hist_seqr::total      1021577                       (Unspecified)
board.cache_hierarchy.ruby_system.RequestType.RMW_Read.hit_latency_hist_seqr::bucket_size         1024                       (Unspecified)
board.cache_hierarchy.ruby_system.RequestType.RMW_Read.hit_latency_hist_seqr::max_bucket        10239                       (Unspecified)
board.cache_hierarchy.ruby_system.RequestType.RMW_Read.hit_latency_hist_seqr::samples       975723                       (Unspecified)
board.cache_hierarchy.ruby_system.RequestType.RMW_Read.hit_latency_hist_seqr::mean     2.741518                       (Unspecified)
board.cache_hierarchy.ruby_system.RequestType.RMW_Read.hit_latency_hist_seqr::gmean     1.077069                       (Unspecified)
board.cache_hierarchy.ruby_system.RequestType.RMW_Read.hit_latency_hist_seqr::stdev    28.297179                       (Unspecified)
board.cache_hierarchy.ruby_system.RequestType.RMW_Read.hit_latency_hist_seqr |      975610     99.99%     99.99% |         109      0.01%    100.00% |           3      0.00%    100.00% |           0      0.00%    100.00% |           0      0.00%    100.00% |           1      0.00%    100.00% |           0      0.00%    100.00% |           0      0.00%    100.00% |           0      0.00%    100.00% |           0      0.00%    100.00% (Unspecified)
board.cache_hierarchy.ruby_system.RequestType.RMW_Read.hit_latency_hist_seqr::total       975723                       (Unspecified)
board.cache_hierarchy.ruby_system.RequestType.RMW_Read.miss_latency_hist_seqr::bucket_size          256                       (Unspecified)
board.cache_hierarchy.ruby_system.RequestType.RMW_Read.miss_latency_hist_seqr::max_bucket         2559                       (Unspecified)
board.cache_hierarchy.ruby_system.RequestType.RMW_Read.miss_latency_hist_seqr::samples        45854                       (Unspecified)
board.cache_hierarchy.ruby_system.RequestType.RMW_Read.miss_latency_hist_seqr::mean   279.237733                       (Unspecified)
board.cache_hierarchy.ruby_system.RequestType.RMW_Read.miss_latency_hist_seqr::gmean   185.807552                       (Unspecified)
board.cache_hierarchy.ruby_system.RequestType.RMW_Read.miss_latency_hist_seqr::stdev   202.370490                       (Unspecified)
board.cache_hierarchy.ruby_system.RequestType.RMW_Read.miss_latency_hist_seqr |       22653     49.40%     49.40% |       18660     40.69%     90.10% |        3553      7.75%     97.85% |         479      1.04%     98.89% |         308      0.67%     99.56% |         162      0.35%     99.91% |          26      0.06%     99.97% |           9      0.02%     99.99% |           4      0.01%    100.00% |           0      0.00%    100.00% (Unspecified)
board.cache_hierarchy.ruby_system.RequestType.RMW_Read.miss_latency_hist_seqr::total        45854                       (Unspecified)
board.cache_hierarchy.ruby_system.RequestType.Locked_RMW_Read.latency_hist_seqr::bucket_size          512                       (Unspecified)
board.cache_hierarchy.ruby_system.RequestType.Locked_RMW_Read.latency_hist_seqr::max_bucket         5119                       (Unspecified)
board.cache_hierarchy.ruby_system.RequestType.Locked_RMW_Read.latency_hist_seqr::samples       699617                       (Unspecified)
board.cache_hierarchy.ruby_system.RequestType.Locked_RMW_Read.latency_hist_seqr::mean    29.411640                       (Unspecified)
board.cache_hierarchy.ruby_system.RequestType.Locked_RMW_Read.latency_hist_seqr::gmean     1.935760                       (Unspecified)
board.cache_hierarchy.ruby_system.RequestType.Locked_RMW_Read.latency_hist_seqr::stdev   103.847352                       (Unspecified)
board.cache_hierarchy.ruby_system.RequestType.Locked_RMW_Read.latency_hist_seqr |      692817     99.03%     99.03% |        6042      0.86%     99.89% |         707      0.10%     99.99% |          47      0.01%    100.00% |           2      0.00%    100.00% |           0      0.00%    100.00% |           1      0.00%    100.00% |           1      0.00%    100.00% |           0      0.00%    100.00% |           0      0.00%    100.00% (Unspecified)
board.cache_hierarchy.ruby_system.RequestType.Locked_RMW_Read.latency_hist_seqr::total       699617                       (Unspecified)
board.cache_hierarchy.ruby_system.RequestType.Locked_RMW_Read.hit_latency_hist_seqr::bucket_size          256                       (Unspecified)
board.cache_hierarchy.ruby_system.RequestType.Locked_RMW_Read.hit_latency_hist_seqr::max_bucket         2559                       (Unspecified)
board.cache_hierarchy.ruby_system.RequestType.Locked_RMW_Read.hit_latency_hist_seqr::samples       595805                       (Unspecified)
board.cache_hierarchy.ruby_system.RequestType.Locked_RMW_Read.hit_latency_hist_seqr::mean     1.026626                       (Unspecified)
board.cache_hierarchy.ruby_system.RequestType.Locked_RMW_Read.hit_latency_hist_seqr::gmean     1.000543                       (Unspecified)
board.cache_hierarchy.ruby_system.RequestType.Locked_RMW_Read.hit_latency_hist_seqr::stdev     3.439040                       (Unspecified)
board.cache_hierarchy.ruby_system.RequestType.Locked_RMW_Read.hit_latency_hist_seqr |      595784    100.00%    100.00% |          17      0.00%    100.00% |           2      0.00%    100.00% |           1      0.00%    100.00% |           0      0.00%    100.00% |           1      0.00%    100.00% |           0      0.00%    100.00% |           0      0.00%    100.00% |           0      0.00%    100.00% |           0      0.00%    100.00% (Unspecified)
board.cache_hierarchy.ruby_system.RequestType.Locked_RMW_Read.hit_latency_hist_seqr::total       595805                       (Unspecified)
board.cache_hierarchy.ruby_system.RequestType.Locked_RMW_Read.miss_latency_hist_seqr::bucket_size          512                       (Unspecified)
board.cache_hierarchy.ruby_system.RequestType.Locked_RMW_Read.miss_latency_hist_seqr::max_bucket         5119                       (Unspecified)
board.cache_hierarchy.ruby_system.RequestType.Locked_RMW_Read.miss_latency_hist_seqr::samples       103812                       (Unspecified)
board.cache_hierarchy.ruby_system.RequestType.Locked_RMW_Read.miss_latency_hist_seqr::mean   192.320868                       (Unspecified)
board.cache_hierarchy.ruby_system.RequestType.Locked_RMW_Read.miss_latency_hist_seqr::gmean    85.470647                       (Unspecified)
board.cache_hierarchy.ruby_system.RequestType.Locked_RMW_Read.miss_latency_hist_seqr::stdev   203.585199                       (Unspecified)
board.cache_hierarchy.ruby_system.RequestType.Locked_RMW_Read.miss_latency_hist_seqr |       97016     93.45%     93.45% |        6039      5.82%     99.27% |         706      0.68%     99.95% |          47      0.05%    100.00% |           2      0.00%    100.00% |           0      0.00%    100.00% |           1      0.00%    100.00% |           1      0.00%    100.00% |           0      0.00%    100.00% |           0      0.00%    100.00% (Unspecified)
board.cache_hierarchy.ruby_system.RequestType.Locked_RMW_Read.miss_latency_hist_seqr::total       103812                       (Unspecified)
board.cache_hierarchy.ruby_system.RequestType.Locked_RMW_Write.latency_hist_seqr::bucket_size            1                       (Unspecified)
board.cache_hierarchy.ruby_system.RequestType.Locked_RMW_Write.latency_hist_seqr::max_bucket            9                       (Unspecified)
board.cache_hierarchy.ruby_system.RequestType.Locked_RMW_Write.latency_hist_seqr::samples       699617                       (Unspecified)
board.cache_hierarchy.ruby_system.RequestType.Locked_RMW_Write.latency_hist_seqr::mean            1                       (Unspecified)
board.cache_hierarchy.ruby_system.RequestType.Locked_RMW_Write.latency_hist_seqr::gmean            1                       (Unspecified)
board.cache_hierarchy.ruby_system.RequestType.Locked_RMW_Write.latency_hist_seqr |           0      0.00%      0.00% |      699617    100.00%    100.00% |           0      0.00%    100.00% |           0      0.00%    100.00% |           0      0.00%    100.00% |           0      0.00%    100.00% |           0      0.00%    100.00% |           0      0.00%    100.00% |           0      0.00%    100.00% |           0      0.00%    100.00% (Unspecified)
[...]
board.processor.cores9.core.fetch.nisnDist::stdev     2.749041                       # Number of instructions fetched each cycle (Total) (Count)
board.processor.cores9.core.fetch.nisnDist::underflows            0      0.00%      0.00% # Number of instructions fetched each cycle (Total) (Count)
board.processor.cores9.core.fetch.nisnDist::0     72999570     77.48%     77.48% # Number of instructions fetched each cycle (Total) (Count)
board.processor.cores9.core.fetch.nisnDist::1      1404811      1.49%     78.97% # Number of instructions fetched each cycle (Total) (Count)
board.processor.cores9.core.fetch.nisnDist::2      1305936      1.39%     80.36% # Number of instructions fetched each cycle (Total) (Count)
board.processor.cores9.core.fetch.nisnDist::3      1538092      1.63%     81.99% # Number of instructions fetched each cycle (Total) (Count)
board.processor.cores9.core.fetch.nisnDist::4      2113063      2.24%     84.23% # Number of instructions fetched each cycle (Total) (Count)
board.processor.cores9.core.fetch.nisnDist::5      1586862      1.68%     85.92% # Number of instructions fetched each cycle (Total) (Count)
board.processor.cores9.core.fetch.nisnDist::6      1491214      1.58%     87.50% # Number of instructions fetched each cycle (Total) (Count)
board.processor.cores9.core.fetch.nisnDist::7      1215420      1.29%     88.79% # Number of instructions fetched each cycle (Total) (Count)
board.processor.cores9.core.fetch.nisnDist::8     10561064     11.21%    100.00% # Number of instructions fetched each cycle (Total) (Count)
board.processor.cores9.core.fetch.nisnDist::overflows            0      0.00%    100.00% # Number of instructions fetched each cycle (Total) (Count)
board.processor.cores9.core.fetch.nisnDist::min_value            0                       # Number of instructions fetched each cycle (Total) (Count)
board.processor.cores9.core.fetch.nisnDist::max_value            8                       # Number of instructions fetched each cycle (Total) (Count)
board.processor.cores9.core.fetch.nisnDist::total     94216032                       # Number of instructions fetched each cycle (Total) (Count)
board.processor.cores9.core.fetch.branchRate     0.085750                       # Number of branch fetches per cycle (Ratio)
board.processor.cores9.core.fetch.rate       0.540509                       # Number of inst fetches per cycle ((Count/Cycle))
board.processor.cores9.core.iew.idleCycles            0                       # Number of cycles IEW is idle (Cycle)
board.processor.cores9.core.iew.squashCycles       409742                       # Number of cycles IEW is squashing (Cycle)
board.processor.cores9.core.iew.blockCycles     16006786                       # Number of cycles IEW is blocking (Cycle)
board.processor.cores9.core.iew.unblockCycles      6989568                       # Number of cycles IEW is unblocking (Cycle)
board.processor.cores9.core.iew.dispatchedInsts    118605164                       # Number of instructions dispatched to IQ (Count)
board.processor.cores9.core.iew.dispSquashedInsts        52331                       # Number of squashed instructions skipped by dispatch (Count)
board.processor.cores9.core.iew.dispLoadInsts     15114597                       # Number of dispatched load instructions (Count)
board.processor.cores9.core.iew.dispStoreInsts      7772888                       # Number of dispatched store instructions (Count)
board.processor.cores9.core.iew.dispNonSpecInsts       147597                       # Number of dispatched non-speculative instructions (Count)
board.processor.cores9.core.iew.iqFullEvents        94791                       # Number of times the IQ has become full, causing a stall (Count)
board.processor.cores9.core.iew.lsqFullEvents      6841085                       # Number of times the LSQ has become full, causing a stall (Count)
board.processor.cores9.core.iew.memOrderViolationEvents        31813                       # Number of memory order violations (Count)
board.processor.cores9.core.iew.predictedTakenIncorrect       128985                       # Number of branches that were predicted taken incorrectly (Count)
board.processor.cores9.core.iew.predictedNotTakenIncorrect       277433                       # Number of branches that were predicted not taken incorrectly (Count)
board.processor.cores9.core.iew.branchMispredicts       406418                       # Number of branch mispredicts detected at execute (Count)
board.processor.cores9.core.iew.instsToCommit    113900611                       # Cumulative count of insts sent to commit (Count)
board.processor.cores9.core.iew.writebackCount    113629320                       # Cumulative count of insts written-back (Count)
board.processor.cores9.core.iew.producerInst     86857104                       # Number of instructions producing a value (Count)
board.processor.cores9.core.iew.consumerInst    143270762                       # Number of instructions consuming a value (Count)
board.processor.cores9.core.iew.wbRate       0.879382                       # Insts written-back per cycle ((Count/Cycle))
board.processor.cores9.core.iew.wbFanout     0.606244                       # Average fanout of values written-back ((Count/Count))
board.processor.cores9.core.lsq0.forwLoads      1651339                       # Number of loads that had data forwarded from stores (Count)
board.processor.cores9.core.lsq0.squashedLoads      1951749                       # Number of loads squashed (Count)
board.processor.cores9.core.lsq0.ignoredResponses         8987                       # Number of memory responses ignored because the instruction is squashed (Count)
board.processor.cores9.core.lsq0.memOrderViolation        31813                       # Number of memory ordering violations (Count)
board.processor.cores9.core.lsq0.squashedStores      1234395                       # Number of stores squashed (Count)
board.processor.cores9.core.lsq0.rescheduledLoads         7060                       # Number of loads that were rescheduled (Count)
board.processor.cores9.core.lsq0.blockedByCache         7262                       # Number of times an access to memory failed due to the cache being blocked (Count)
board.processor.cores9.core.lsq0.loadToUse::samples     13128513                       # Distribution of cycle latency between the first time a load is issued and its completion (Unspecified)
board.processor.cores9.core.lsq0.loadToUse::mean    12.560141                       # Distribution of cycle latency between the first time a load is issued and its completion (Unspecified)
board.processor.cores9.core.lsq0.loadToUse::stdev    67.400182                       # Distribution of cycle latency between the first time a load is issued and its completion (Unspecified)
board.processor.cores9.core.lsq0.loadToUse::0-9     12692261     96.68%     96.68% # Distribution of cycle latency between the first time a load is issued and its completion (Unspecified)
board.processor.cores9.core.lsq0.loadToUse::10-19        40566      0.31%     96.99% # Distribution of cycle latency between the first time a load is issued and its completion (Unspecified)
board.processor.cores9.core.lsq0.loadToUse::20-29        23184      0.18%     97.16% # Distribution of cycle latency between the first time a load is issued and its completion (Unspecified)
board.processor.cores9.core.lsq0.loadToUse::30-39         4671      0.04%     97.20% # Distribution of cycle latency between the first time a load is issued and its completion (Unspecified)
board.processor.cores9.core.lsq0.loadToUse::40-49         3048      0.02%     97.22% # Distribution of cycle latency between the first time a load is issued and its completion (Unspecified)
board.processor.cores9.core.lsq0.loadToUse::50-59         7842      0.06%     97.28% # Distribution of cycle latency between the first time a load is issued and its completion (Unspecified)
board.processor.cores9.core.lsq0.loadToUse::60-69         3505      0.03%     97.31% # Distribution of cycle latency between the first time a load is issued and its completion (Unspecified)
board.processor.cores9.core.lsq0.loadToUse::70-79         1177      0.01%     97.32% # Distribution of cycle latency between the first time a load is issued and its completion (Unspecified)
board.processor.cores9.core.lsq0.loadToUse::80-89         1103      0.01%     97.33% # Distribution of cycle latency between the first time a load is issued and its completion (Unspecified)
board.processor.cores9.core.lsq0.loadToUse::90-99         1889      0.01%     97.34% # Distribution of cycle latency between the first time a load is issued and its completion (Unspecified)
board.processor.cores9.core.lsq0.loadToUse::100-109         1217      0.01%     97.35% # Distribution of cycle latency between the first time a load is issued and its completion (Unspecified)
board.processor.cores9.core.lsq0.loadToUse::110-119         1134      0.01%     97.36% # Distribution of cycle latency between the first time a load is issued and its completion (Unspecified)
board.processor.cores9.core.lsq0.loadToUse::120-129         1484      0.01%     97.37% # Distribution of cycle latency between the first time a load is issued and its completion (Unspecified)
board.processor.cores9.core.lsq0.loadToUse::130-139         1925      0.01%     97.38% # Distribution of cycle latency between the first time a load is issued and its completion (Unspecified)
board.processor.cores9.core.lsq0.loadToUse::140-149         5803      0.04%     97.43% # Distribution of cycle latency between the first time a load is issued and its completion (Unspecified)
board.processor.cores9.core.lsq0.loadToUse::150-159         3326      0.03%     97.45% # Distribution of cycle latency between the first time a load is issued and its completion (Unspecified)
board.processor.cores9.core.lsq0.loadToUse::160-169         2924      0.02%     97.48% # Distribution of cycle latency between the first time a load is issued and its completion (Unspecified)
board.processor.cores9.core.lsq0.loadToUse::170-179         3029      0.02%     97.50% # Distribution of cycle latency between the first time a load is issued and its completion (Unspecified)
board.processor.cores9.core.lsq0.loadToUse::180-189         5973      0.05%     97.54% # Distribution of cycle latency between the first time a load is issued and its completion (Unspecified)
board.processor.cores9.core.lsq0.loadToUse::190-199         5178      0.04%     97.58% # Distribution of cycle latency between the first time a load is issued and its completion (Unspecified)
board.processor.cores9.core.lsq0.loadToUse::200-209         6190      0.05%     97.63% # Distribution of cycle latency between the first time a load is issued and its completion (Unspecified)
board.processor.cores9.core.lsq0.loadToUse::210-219         7759      0.06%     97.69% # Distribution of cycle latency between the first time a load is issued and its completion (Unspecified)
board.processor.cores9.core.lsq0.loadToUse::220-229        22287      0.17%     97.86% # Distribution of cycle latency between the first time a load is issued and its completion (Unspecified)
board.processor.cores9.core.lsq0.loadToUse::230-239        24463      0.19%     98.05% # Distribution of cycle latency between the first time a load is issued and its completion (Unspecified)
board.processor.cores9.core.lsq0.loadToUse::240-249        20980      0.16%     98.21% # Distribution of cycle latency between the first time a load is issued and its completion (Unspecified)
board.processor.cores9.core.lsq0.loadToUse::250-259        18073      0.14%     98.34% # Distribution of cycle latency between the first time a load is issued and its completion (Unspecified)
board.processor.cores9.core.lsq0.loadToUse::260-269        15426      0.12%     98.46% # Distribution of cycle latency between the first time a load is issued and its completion (Unspecified)
board.processor.cores9.core.lsq0.loadToUse::270-279        13558      0.10%     98.56% # Distribution of cycle latency between the first time a load is issued and its completion (Unspecified)
board.processor.cores9.core.lsq0.loadToUse::280-289        12955      0.10%     98.66% # Distribution of cycle latency between the first time a load is issued and its completion (Unspecified)
board.processor.cores9.core.lsq0.loadToUse::290-299        11382      0.09%     98.75% # Distribution of cycle latency between the first time a load is issued and its completion (Unspecified)
board.processor.cores9.core.lsq0.loadToUse::overflows       164201      1.25%    100.00% # Distribution of cycle latency between the first time a load is issued and its completion (Unspecified)
board.processor.cores9.core.lsq0.loadToUse::min_value            2                       # Distribution of cycle latency between the first time a load is issued and its completion (Unspecified)
board.processor.cores9.core.lsq0.loadToUse::max_value         7901                       # Distribution of cycle latency between the first time a load is issued and its completion (Unspecified)
board.processor.cores9.core.lsq0.loadToUse::total     13128513                       # Distribution of cycle latency between the first time a load is issued and its completion (Unspecified)
board.processor.cores9.core.mmu.dtb.rdAccesses     14552252                       # TLB accesses on read requests (Count)
board.processor.cores9.core.mmu.dtb.wrAccesses      7278697                       # TLB accesses on write requests (Count)
board.processor.cores9.core.mmu.dtb.rdMisses       116614                       # TLB misses on read requests (Count)
board.processor.cores9.core.mmu.dtb.wrMisses        54617                       # TLB misses on write requests (Count)
board.processor.cores9.core.mmu.dtb.walker.power_state.pwrStateResidencyTicks::UNDEFINED 33458185280377                       # Cumulative time (in ticks) in various power states (Tick)
board.processor.cores9.core.mmu.itb.rdAccesses            0                       # TLB accesses on read requests (Count)
board.processor.cores9.core.mmu.itb.wrAccesses      8419539                       # TLB accesses on write requests (Count)
board.processor.cores9.core.mmu.itb.rdMisses            0                       # TLB misses on read requests (Count)
board.processor.cores9.core.mmu.itb.wrMisses        74787                       # TLB misses on write requests (Count)
board.processor.cores9.core.mmu.itb.walker.power_state.pwrStateResidencyTicks::UNDEFINED 33458185280377                       # Cumulative time (in ticks) in various power states (Tick)
board.processor.cores9.core.power_state.numTransitions          174                       # Number of power state transitions (Count)
board.processor.cores9.core.power_state.ticksClkGated::samples           88                       # Distribution of time spent in the clock gated state (Tick)
board.processor.cores9.core.power_state.ticksClkGated::mean 412108975.727273                       # Distribution of time spent in the clock gated state (Tick)
board.processor.cores9.core.power_state.ticksClkGated::stdev 373957012.655522                       # Distribution of time spent in the clock gated state (Tick)
board.processor.cores9.core.power_state.ticksClkGated::1000-5e+10           88    100.00%    100.00% # Distribution of time spent in the clock gated state (Tick)
board.processor.cores9.core.power_state.ticksClkGated::min_value      9397262                       # Distribution of time spent in the clock gated state (Tick)
board.processor.cores9.core.power_state.ticksClkGated::max_value    999002997                       # Distribution of time spent in the clock gated state (Tick)
board.processor.cores9.core.power_state.ticksClkGated::total           88                       # Distribution of time spent in the clock gated state (Tick)
board.processor.cores9.core.power_state.pwrStateResidencyTicks::ON  43028579927                       # Cumulative time (in ticks) in various power states (Tick)
board.processor.cores9.core.power_state.pwrStateResidencyTicks::CLK_GATED  36265589864                       # Cumulative time (in ticks) in various power states (Tick)
board.processor.cores9.core.rename.squashCycles       409742                       # Number of cycles rename is squashing (Cycle)
board.processor.cores9.core.rename.idleCycles     18951559                       # Number of cycles rename is idle (Cycle)
board.processor.cores9.core.rename.blockCycles     31243435                       # Number of cycles rename is blocking (Cycle)
board.processor.cores9.core.rename.serializeStallCycles      7707605                       # count of cycles rename stalled for serializing inst (Cycle)
board.processor.cores9.core.rename.runCycles     16547529                       # Number of cycles rename is running (Cycle)
board.processor.cores9.core.rename.unblockCycles     19356162                       # Number of cycles rename is unblocking (Cycle)
board.processor.cores9.core.rename.renamedInsts    120414716                       # Number of instructions processed by rename (Count)
board.processor.cores9.core.rename.ROBFullEvents       268550                       # Number of times rename has blocked due to ROB full (Count)
board.processor.cores9.core.rename.IQFullEvents      5960859                       # Number of times rename has blocked due to IQ full (Count)
board.processor.cores9.core.rename.LQFullEvents      2214531                       # Number of times rename has blocked due to LQ full (Count)
board.processor.cores9.core.rename.SQFullEvents     10432552                       # Number of times rename has blocked due to SQ full (Count)
board.processor.cores9.core.rename.fullRegistersEvents            2                       # Number of times there has been no free registers (Count)
board.processor.cores9.core.rename.renamedOperands    155106612                       # Number of destination operands rename has renamed (Count)
board.processor.cores9.core.rename.lookups    289062725                       # Number of register rename lookups that rename has made (Count)
board.processor.cores9.core.rename.intLookups    188597776                       # Number of integer rename lookups (Count)
board.processor.cores9.core.rename.fpLookups      6174183                       # Number of floating rename lookups (Count)
board.processor.cores9.core.rename.committedMaps    139267123                       # Number of HB maps that are committed (Count)
board.processor.cores9.core.rename.undoneMaps     15839489                       # Number of HB maps that are undone due to squashing (Count)
board.processor.cores9.core.rename.serializing        71228                       # count of serializing insts renamed (Count)
board.processor.cores9.core.rename.tempSerializing        71150                       # count of temporary serializing insts renamed (Count)
board.processor.cores9.core.rename.skidInsts     19066244                       # count of insts added to the skid buffer (Count)
board.processor.cores9.core.rob.reads       205214649                       # The number of ROB reads (Count)
board.processor.cores9.core.rob.writes      238719987                       # The number of ROB writes (Count)
board.processor.cores9.core.thread_0.numInsts     59001635                       # Number of Instructions committed (Count)
board.processor.cores9.core.thread_0.numOps    105402810                       # Number of Ops committed (Count)
board.processor.cores9.core.thread_0.numMemRefs            0                       # Number of Memory References (Count)
board.workload.inst.arm                             0                       # number of arm instructions executed (Count)
board.workload.inst.quiesce                         0                       # number of quiesce instructions executed (Count)

---------- End Simulation Statistics   ----------
