
---------- Begin Simulation Statistics ----------
simSeconds                                   3.095502                       # Number of seconds simulated (Second)
simTicks                                 3095502317748                       # Number of ticks simulated (Tick)
finalTick                                27397707488380                       # Number of ticks from beginning of simulation (restored from checkpoints and never reset) (Tick)
simFreq                                  1000000000000                       # The number of ticks per simulated second ((Tick/Second))
hostSeconds                                  50031.08                       # Real time elapsed on the host (Second)
hostTickRate                                 61871587                       # The number of ticks simulated per host second (ticks/s) ((Tick/Second))
hostMemory                                    9127460                       # Number of bytes of host memory used (Byte)
simInsts                                   9962116673                       # Number of instructions simulated (Count)
simOps                                    13715299126                       # Number of ops (including micro ops) simulated (Count)
hostInstRate                                   199119                       # Simulator instruction rate (inst/s) ((Count/Second))
hostOpRate                                     274136                       # Simulator op (including micro ops) rate (op/s) ((Count/Second))
board.cache_hierarchy.ruby_system.delayHistogram::bucket_size          256                       # delay histogram for all message (Unspecified)
board.cache_hierarchy.ruby_system.delayHistogram::max_bucket         2559                       # delay histogram for all message (Unspecified)
board.cache_hierarchy.ruby_system.delayHistogram::samples    957337086                       # delay histogram for all message (Unspecified)
board.cache_hierarchy.ruby_system.delayHistogram::mean     0.505161                       # delay histogram for all message (Unspecified)
board.cache_hierarchy.ruby_system.delayHistogram::stdev     2.167507                       # delay histogram for all message (Unspecified)
board.cache_hierarchy.ruby_system.delayHistogram |   957336440    100.00%    100.00% |         549      0.00%    100.00% |          63      0.00%    100.00% |          21      0.00%    100.00% |           9      0.00%    100.00% |           3      0.00%    100.00% |           1      0.00%    100.00% |           0      0.00%    100.00% |           0      0.00%    100.00% |           0      0.00%    100.00% # delay histogram for all message (Unspecified)
board.cache_hierarchy.ruby_system.delayHistogram::total    957337086                       # delay histogram for all message (Unspecified)
board.cache_hierarchy.ruby_system.m_outstandReqHistSeqr::bucket_size            2                       (Unspecified)
board.cache_hierarchy.ruby_system.m_outstandReqHistSeqr::max_bucket           19                       (Unspecified)
board.cache_hierarchy.ruby_system.m_outstandReqHistSeqr::samples   2453469226                       (Unspecified)
board.cache_hierarchy.ruby_system.m_outstandReqHistSeqr::mean     2.145021                       (Unspecified)
board.cache_hierarchy.ruby_system.m_outstandReqHistSeqr::gmean     1.787413                       (Unspecified)
board.cache_hierarchy.ruby_system.m_outstandReqHistSeqr::stdev     1.591189                       (Unspecified)
board.cache_hierarchy.ruby_system.m_outstandReqHistSeqr |  1009740179     41.16%     41.16% |  1144205163     46.64%     87.79% |   220919329      9.00%     96.80% |    45019929      1.83%     98.63% |    15475826      0.63%     99.26% |     6715140      0.27%     99.54% |     5004943      0.20%     99.74% |     3625413      0.15%     99.89% |     2763304      0.11%    100.00% |           0      0.00%    100.00% (Unspecified)
board.cache_hierarchy.ruby_system.m_outstandReqHistSeqr::total   2453469226                       (Unspecified)
board.cache_hierarchy.ruby_system.m_latencyHistSeqr::bucket_size         2048                       (Unspecified)
board.cache_hierarchy.ruby_system.m_latencyHistSeqr::max_bucket        20479                       (Unspecified)
board.cache_hierarchy.ruby_system.m_latencyHistSeqr::samples   2463483405                       (Unspecified)
board.cache_hierarchy.ruby_system.m_latencyHistSeqr::mean    12.796509                       (Unspecified)
board.cache_hierarchy.ruby_system.m_latencyHistSeqr::gmean     1.383614                       (Unspecified)
board.cache_hierarchy.ruby_system.m_latencyHistSeqr::stdev    58.783446                       (Unspecified)
board.cache_hierarchy.ruby_system.m_latencyHistSeqr |  2463477434    100.00%    100.00% |        5595      0.00%    100.00% |         274      0.00%    100.00% |          66      0.00%    100.00% |          20      0.00%    100.00% |           8      0.00%    100.00% |           8      0.00%    100.00% |           0      0.00%    100.00% |           0      0.00%    100.00% |           0      0.00%    100.00% (Unspecified)
board.cache_hierarchy.ruby_system.m_latencyHistSeqr::total   2463483405                       (Unspecified)
board.cache_hierarchy.ruby_system.m_hitLatencyHistSeqr::bucket_size         1024                       (Unspecified)
board.cache_hierarchy.ruby_system.m_hitLatencyHistSeqr::max_bucket        10239                       (Unspecified)
board.cache_hierarchy.ruby_system.m_hitLatencyHistSeqr::samples   2285614000                       (Unspecified)
board.cache_hierarchy.ruby_system.m_hitLatencyHistSeqr::mean     1.027980                       (Unspecified)
board.cache_hierarchy.ruby_system.m_hitLatencyHistSeqr::gmean     1.004121                       (Unspecified)
board.cache_hierarchy.ruby_system.m_hitLatencyHistSeqr::stdev     2.687315                       (Unspecified)
board.cache_hierarchy.ruby_system.m_hitLatencyHistSeqr |  2285612802    100.00%    100.00% |        1185      0.00%    100.00% |          10      0.00%    100.00% |           2      0.00%    100.00% |           0      0.00%    100.00% |           1      0.00%    100.00% |           0      0.00%    100.00% |           0      0.00%    100.00% |           0      0.00%    100.00% |           0      0.00%    100.00% (Unspecified)
board.cache_hierarchy.ruby_system.m_hitLatencyHistSeqr::total   2285614000                       (Unspecified)
board.cache_hierarchy.ruby_system.m_missLatencyHistSeqr::bucket_size         2048                       (Unspecified)
board.cache_hierarchy.ruby_system.m_missLatencyHistSeqr::max_bucket        20479                       (Unspecified)
board.cache_hierarchy.ruby_system.m_missLatencyHistSeqr::samples    177869405                       (Unspecified)
board.cache_hierarchy.ruby_system.m_missLatencyHistSeqr::mean   164.021585                       (Unspecified)
board.cache_hierarchy.ruby_system.m_missLatencyHistSeqr::gmean    85.133456                       (Unspecified)
board.cache_hierarchy.ruby_system.m_missLatencyHistSeqr::stdev   152.042478                       (Unspecified)
board.cache_hierarchy.ruby_system.m_missLatencyHistSeqr |   177863447    100.00%    100.00% |        5583      0.00%    100.00% |         273      0.00%    100.00% |          66      0.00%    100.00% |          20      0.00%    100.00% |           8      0.00%    100.00% |           8      0.00%    100.00% |           0      0.00%    100.00% |           0      0.00%    100.00% |           0      0.00%    100.00% (Unspecified)
board.cache_hierarchy.ruby_system.m_missLatencyHistSeqr::total    177869405                       (Unspecified)
board.cache_hierarchy.ruby_system.delayVCHist.vnet_0::bucket_size          256                       # delay histogram for vnet_0 (Unspecified)
board.cache_hierarchy.ruby_system.delayVCHist.vnet_0::max_bucket         2559                       # delay histogram for vnet_0 (Unspecified)
board.cache_hierarchy.ruby_system.delayVCHist.vnet_0::samples    283911138                       # delay histogram for vnet_0 (Unspecified)
board.cache_hierarchy.ruby_system.delayVCHist.vnet_0::mean     1.087457                       # delay histogram for vnet_0 (Unspecified)
board.cache_hierarchy.ruby_system.delayVCHist.vnet_0::stdev     3.376863                       # delay histogram for vnet_0 (Unspecified)
board.cache_hierarchy.ruby_system.delayVCHist.vnet_0 |   283910492    100.00%    100.00% |         549      0.00%    100.00% |          63      0.00%    100.00% |          21      0.00%    100.00% |           9      0.00%    100.00% |           3      0.00%    100.00% |           1      0.00%    100.00% |           0      0.00%    100.00% |           0      0.00%    100.00% |           0      0.00%    100.00% # delay histogram for vnet_0 (Unspecified)
board.cache_hierarchy.ruby_system.delayVCHist.vnet_0::total    283911138                       # delay histogram for vnet_0 (Unspecified)
board.cache_hierarchy.ruby_system.delayVCHist.vnet_1::bucket_size           16                       # delay histogram for vnet_1 (Unspecified)
board.cache_hierarchy.ruby_system.delayVCHist.vnet_1::max_bucket          159                       # delay histogram for vnet_1 (Unspecified)
board.cache_hierarchy.ruby_system.delayVCHist.vnet_1::samples    557531934                       # delay histogram for vnet_1 (Unspecified)
board.cache_hierarchy.ruby_system.delayVCHist.vnet_1::mean     0.313555                       # delay histogram for vnet_1 (Unspecified)
board.cache_hierarchy.ruby_system.delayVCHist.vnet_1::stdev     1.413410                       # delay histogram for vnet_1 (Unspecified)
board.cache_hierarchy.ruby_system.delayVCHist.vnet_1 |   557060903     99.92%     99.92% |      455430      0.08%    100.00% |       14478      0.00%    100.00% |         953      0.00%    100.00% |         124      0.00%    100.00% |          33      0.00%    100.00% |          13      0.00%    100.00% |           0      0.00%    100.00% |           0      0.00%    100.00% |           0      0.00%    100.00% # delay histogram for vnet_1 (Unspecified)
board.cache_hierarchy.ruby_system.delayVCHist.vnet_1::total    557531934                       # delay histogram for vnet_1 (Unspecified)
board.cache_hierarchy.ruby_system.delayVCHist.vnet_2::bucket_size            1                       # delay histogram for vnet_2 (Unspecified)
board.cache_hierarchy.ruby_system.delayVCHist.vnet_2::max_bucket            9                       # delay histogram for vnet_2 (Unspecified)
board.cache_hierarchy.ruby_system.delayVCHist.vnet_2::samples    115894014                       # delay histogram for vnet_2 (Unspecified)
board.cache_hierarchy.ruby_system.delayVCHist.vnet_2::mean     0.000436                       # delay histogram for vnet_2 (Unspecified)
board.cache_hierarchy.ruby_system.delayVCHist.vnet_2::stdev     0.029595                       # delay histogram for vnet_2 (Unspecified)
board.cache_hierarchy.ruby_system.delayVCHist.vnet_2 |   115868823     99.98%     99.98% |           0      0.00%     99.98% |       25127      0.02%    100.00% |           0      0.00%    100.00% |          64      0.00%    100.00% |           0      0.00%    100.00% |           0      0.00%    100.00% |           0      0.00%    100.00% |           0      0.00%    100.00% |           0      0.00%    100.00% # delay histogram for vnet_2 (Unspecified)
board.cache_hierarchy.ruby_system.delayVCHist.vnet_2::total    115894014                       # delay histogram for vnet_2 (Unspecified)
board.cache_hierarchy.ruby_system.Directory_Controller.Fetch    111904482      0.00%      0.00% (Unspecified)
board.cache_hierarchy.ruby_system.Directory_Controller.Data     21274013      0.00%      0.00% (Unspecified)
board.cache_hierarchy.ruby_system.Directory_Controller.Memory_Data    112277658      0.00%      0.00% (Unspecified)
board.cache_hierarchy.ruby_system.Directory_Controller.Memory_Ack     22097555      0.00%      0.00% (Unspecified)
board.cache_hierarchy.ruby_system.Directory_Controller.DMA_READ       401344      0.00%      0.00% (Unspecified)
board.cache_hierarchy.ruby_system.Directory_Controller.DMA_WRITE       823552      0.00%      0.00% (Unspecified)
board.cache_hierarchy.ruby_system.Directory_Controller.CleanReplacement     90626373      0.00%      0.00% (Unspecified)
board.cache_hierarchy.ruby_system.Directory_Controller.I.Fetch    111904482      0.00%      0.00% (Unspecified)
board.cache_hierarchy.ruby_system.Directory_Controller.I.DMA_READ       373177      0.00%      0.00% (Unspecified)
board.cache_hierarchy.ruby_system.Directory_Controller.I.DMA_WRITE       823542      0.00%      0.00% (Unspecified)
board.cache_hierarchy.ruby_system.Directory_Controller.ID.Memory_Data       373177      0.00%      0.00% (Unspecified)
board.cache_hierarchy.ruby_system.Directory_Controller.ID_W.Memory_Ack       823542      0.00%      0.00% (Unspecified)
board.cache_hierarchy.ruby_system.Directory_Controller.M.Data     21245838      0.00%      0.00% (Unspecified)
board.cache_hierarchy.ruby_system.Directory_Controller.M.DMA_READ        28165      0.00%      0.00% (Unspecified)
board.cache_hierarchy.ruby_system.Directory_Controller.M.DMA_WRITE           10      0.00%      0.00% (Unspecified)
board.cache_hierarchy.ruby_system.Directory_Controller.M.CleanReplacement     90626373      0.00%      0.00% (Unspecified)
board.cache_hierarchy.ruby_system.Directory_Controller.IM.Memory_Data    111904481      0.00%      0.00% (Unspecified)
board.cache_hierarchy.ruby_system.Directory_Controller.MI.Memory_Ack     21245838      0.00%      0.00% (Unspecified)
board.cache_hierarchy.ruby_system.Directory_Controller.MI.DMA_READ            2      0.00%      0.00% (Unspecified)
board.cache_hierarchy.ruby_system.Directory_Controller.M_DRD.Data        28165      0.00%      0.00% (Unspecified)
board.cache_hierarchy.ruby_system.Directory_Controller.M_DRDI.Memory_Ack        28165      0.00%      0.00% (Unspecified)
board.cache_hierarchy.ruby_system.Directory_Controller.M_DWR.Data           10      0.00%      0.00% (Unspecified)
board.cache_hierarchy.ruby_system.Directory_Controller.M_DWRI.Memory_Ack           10      0.00%      0.00% (Unspecified)
board.cache_hierarchy.ruby_system.DMA_Controller.ReadRequest |      401342    100.00%    100.00% |           0      0.00%    100.00% (Unspecified)
board.cache_hierarchy.ruby_system.DMA_Controller.ReadRequest::total       401342                       (Unspecified)
board.cache_hierarchy.ruby_system.DMA_Controller.WriteRequest |      823552    100.00%    100.00% |           0      0.00%    100.00% (Unspecified)
board.cache_hierarchy.ruby_system.DMA_Controller.WriteRequest::total       823552                       (Unspecified)
board.cache_hierarchy.ruby_system.DMA_Controller.Data |      401342    100.00%    100.00% |           0      0.00%    100.00% (Unspecified)
board.cache_hierarchy.ruby_system.DMA_Controller.Data::total       401342                       (Unspecified)
board.cache_hierarchy.ruby_system.DMA_Controller.Ack |      823552    100.00%    100.00% |           0      0.00%    100.00% (Unspecified)
board.cache_hierarchy.ruby_system.DMA_Controller.Ack::total       823552                       (Unspecified)
board.cache_hierarchy.ruby_system.DMA_Controller.READY.ReadRequest |      401342    100.00%    100.00% |           0      0.00%    100.00% (Unspecified)
board.cache_hierarchy.ruby_system.DMA_Controller.READY.ReadRequest::total       401342                       (Unspecified)
board.cache_hierarchy.ruby_system.DMA_Controller.READY.WriteRequest |      823552    100.00%    100.00% |           0      0.00%    100.00% (Unspecified)
board.cache_hierarchy.ruby_system.DMA_Controller.READY.WriteRequest::total       823552                       (Unspecified)
board.cache_hierarchy.ruby_system.DMA_Controller.BUSY_RD.Data |      401342    100.00%    100.00% |           0      0.00%    100.00% (Unspecified)
board.cache_hierarchy.ruby_system.DMA_Controller.BUSY_RD.Data::total       401342                       (Unspecified)
board.cache_hierarchy.ruby_system.DMA_Controller.BUSY_WR.Ack |      823552    100.00%    100.00% |           0      0.00%    100.00% (Unspecified)
board.cache_hierarchy.ruby_system.DMA_Controller.BUSY_WR.Ack::total       823552                       (Unspecified)
board.cache_hierarchy.ruby_system.L1Cache_Controller.Load |   155852292     14.67%     14.67% |   140618026     13.24%     27.91% |   142325639     13.40%     41.31% |   107579080     10.13%     51.44% |   113630011     10.70%     62.14% |   118879440     11.19%     73.34% |   146742769     13.82%     87.15% |   136460293     12.85%    100.00% (Unspecified)
board.cache_hierarchy.ruby_system.L1Cache_Controller.Load::total   1062087550                       (Unspecified)
board.cache_hierarchy.ruby_system.L1Cache_Controller.Ifetch |   112128183     14.84%     14.84% |   101343126     13.41%     28.25% |    98031680     12.97%     41.23% |    74955722      9.92%     51.15% |    79845284     10.57%     61.72% |    85442469     11.31%     73.03% |   105003189     13.90%     86.92% |    98801604     13.08%    100.00% (Unspecified)
board.cache_hierarchy.ruby_system.L1Cache_Controller.Ifetch::total    755551257                       (Unspecified)
board.cache_hierarchy.ruby_system.L1Cache_Controller.Store |    94106664     14.54%     14.54% |    91146676     14.08%     28.62% |    83856341     12.96%     41.58% |    63659277      9.83%     51.41% |    69246505     10.70%     62.11% |    71714643     11.08%     73.19% |    89970770     13.90%     87.09% |    83578407     12.91%    100.00% (Unspecified)
board.cache_hierarchy.ruby_system.L1Cache_Controller.Store::total    647279283                       (Unspecified)
board.cache_hierarchy.ruby_system.L1Cache_Controller.Inv |    16892822     14.94%     14.94% |    15365508     13.59%     28.53% |    15188911     13.43%     41.96% |    11856722     10.49%     52.44% |    12134996     10.73%     63.18% |    11819833     10.45%     73.63% |    15633789     13.83%     87.45% |    14188243     12.55%    100.00% (Unspecified)
board.cache_hierarchy.ruby_system.L1Cache_Controller.Inv::total    113080824                       (Unspecified)
board.cache_hierarchy.ruby_system.L1Cache_Controller.L1_Replacement |    24589664     15.33%     15.33% |    21030112     13.11%     28.45% |    21361249     13.32%     41.77% |    15396263      9.60%     51.37% |    16856829     10.51%     61.88% |    17244072     10.75%     72.63% |    22208665     13.85%     86.48% |    21676020     13.52%    100.00% (Unspecified)
board.cache_hierarchy.ruby_system.L1Cache_Controller.L1_Replacement::total    160362874                       (Unspecified)
board.cache_hierarchy.ruby_system.L1Cache_Controller.Fwd_GETX |       27902     14.11%     14.11% |       28407     14.37%     28.48% |       28006     14.16%     42.64% |       18381      9.30%     51.94% |       19935     10.08%     62.02% |       20404     10.32%     72.34% |       24196     12.24%     84.58% |       30497     15.42%    100.00% (Unspecified)
board.cache_hierarchy.ruby_system.L1Cache_Controller.Fwd_GETX::total       197728                       (Unspecified)
board.cache_hierarchy.ruby_system.L1Cache_Controller.Fwd_GETS |      431459     16.50%     16.50% |      355983     13.61%     30.11% |      355656     13.60%     43.71% |      259216      9.91%     53.62% |      264198     10.10%     63.72% |      266831     10.20%     73.92% |      338514     12.94%     86.87% |      343462     13.13%    100.00% (Unspecified)
board.cache_hierarchy.ruby_system.L1Cache_Controller.Fwd_GETS::total      2615319                       (Unspecified)
board.cache_hierarchy.ruby_system.L1Cache_Controller.Fwd_GET_INSTR |          27     18.88%     18.88% |           8      5.59%     24.48% |          14      9.79%     34.27% |          23     16.08%     50.35% |          23     16.08%     66.43% |          13      9.09%     75.52% |          22     15.38%     90.91% |          13      9.09%    100.00% (Unspecified)
board.cache_hierarchy.ruby_system.L1Cache_Controller.Fwd_GET_INSTR::total          143                       (Unspecified)
board.cache_hierarchy.ruby_system.L1Cache_Controller.Data |        4807     40.06%     40.06% |         883      7.36%     47.42% |        1266     10.55%     57.97% |         802      6.68%     64.65% |         720      6.00%     70.65% |         966      8.05%     78.70% |         748      6.23%     84.93% |        1808     15.07%    100.00% (Unspecified)
board.cache_hierarchy.ruby_system.L1Cache_Controller.Data::total        12000                       (Unspecified)
board.cache_hierarchy.ruby_system.L1Cache_Controller.Data_Exclusive |     7032279     15.06%     15.06% |     6160562     13.19%     28.25% |     6086469     13.04%     41.29% |     4477297      9.59%     50.88% |     4928756     10.56%     61.44% |     5417985     11.60%     73.04% |     6502643     13.93%     86.97% |     6086193     13.03%    100.00% (Unspecified)
board.cache_hierarchy.ruby_system.L1Cache_Controller.Data_Exclusive::total     46692184                       (Unspecified)
board.cache_hierarchy.ruby_system.L1Cache_Controller.DataS_fromL1 |      349285     13.35%     13.35% |      533574     20.40%     33.76% |      356643     13.64%     47.39% |      277687     10.62%     58.01% |      248118      9.49%     67.50% |      239945      9.17%     76.67% |      303333     11.60%     88.27% |      306877     11.73%    100.00% (Unspecified)
board.cache_hierarchy.ruby_system.L1Cache_Controller.DataS_fromL1::total      2615462                       (Unspecified)
board.cache_hierarchy.ruby_system.L1Cache_Controller.Data_all_Acks |    19300493     15.06%     15.06% |    17354209     13.54%     28.61% |    17089198     13.34%     41.94% |    12663361      9.88%     51.83% |    13531931     10.56%     62.39% |    13433818     10.48%     72.87% |    17469756     13.63%     86.51% |    17287144     13.49%    100.00% (Unspecified)
board.cache_hierarchy.ruby_system.L1Cache_Controller.Data_all_Acks::total    128129910                       (Unspecified)
board.cache_hierarchy.ruby_system.L1Cache_Controller.Ack |      126334     21.77%     21.77% |      100161     17.26%     39.02% |       72858     12.55%     51.58% |       51716      8.91%     60.49% |       50688      8.73%     69.22% |       50492      8.70%     77.92% |       56296      9.70%     87.62% |       71877     12.38%    100.00% (Unspecified)
board.cache_hierarchy.ruby_system.L1Cache_Controller.Ack::total       580422                       (Unspecified)
board.cache_hierarchy.ruby_system.L1Cache_Controller.Ack_all |       86832     17.22%     17.22% |       94203     18.68%     35.89% |       66020     13.09%     48.98% |       46440      9.21%     58.19% |       45120      8.95%     67.13% |       44876      8.90%     76.03% |       52139     10.34%     86.37% |       68760     13.63%    100.00% (Unspecified)
board.cache_hierarchy.ruby_system.L1Cache_Controller.Ack_all::total       504390                       (Unspecified)
board.cache_hierarchy.ruby_system.L1Cache_Controller.WB_Ack |     6147219     15.34%     15.34% |     5570200     13.90%     29.25% |     5061761     12.64%     41.88% |     3394691      8.47%     50.36% |     4146129     10.35%     60.71% |     4718222     11.78%     72.49% |     5614954     14.02%     86.50% |     5407484     13.50%    100.00% (Unspecified)
board.cache_hierarchy.ruby_system.L1Cache_Controller.WB_Ack::total     40060660                       (Unspecified)
board.cache_hierarchy.ruby_system.L1Cache_Controller.NP.Load |     7031361     15.28%     15.28% |     5982618     13.00%     28.28% |     6032177     13.11%     41.39% |     4339860      9.43%     50.82% |     4810997     10.45%     61.27% |     5336094     11.59%     72.86% |     6398052     13.90%     86.77% |     6090700     13.23%    100.00% (Unspecified)
board.cache_hierarchy.ruby_system.L1Cache_Controller.NP.Load::total     46021859                       (Unspecified)
board.cache_hierarchy.ruby_system.L1Cache_Controller.NP.Ifetch |    15455353     15.43%     15.43% |    12871093     12.85%     28.29% |    13462828     13.44%     41.73% |     9794768      9.78%     51.51% |    10610287     10.60%     62.11% |    10364730     10.35%     72.46% |    13889369     13.87%     86.33% |    13687540     13.67%    100.00% (Unspecified)
board.cache_hierarchy.ruby_system.L1Cache_Controller.NP.Ifetch::total    100135968                       (Unspecified)
board.cache_hierarchy.ruby_system.L1Cache_Controller.NP.Store |     2103006     14.80%     14.80% |     2176210     15.32%     30.12% |     1866155     13.14%     43.26% |     1261692      8.88%     52.14% |     1435710     10.11%     62.25% |     1543358     10.86%     73.11% |     1921240     13.52%     86.64% |     1897834     13.36%    100.00% (Unspecified)
board.cache_hierarchy.ruby_system.L1Cache_Controller.NP.Store::total     14205205                       (Unspecified)
board.cache_hierarchy.ruby_system.L1Cache_Controller.NP.Inv |    11024325     15.83%     15.83% |     8922043     12.81%     28.64% |     9284242     13.33%     41.97% |     6774490      9.73%     51.70% |     7495210     10.76%     62.46% |     7147775     10.26%     72.72% |    10060076     14.44%     87.17% |     8936898     12.83%    100.00% (Unspecified)
board.cache_hierarchy.ruby_system.L1Cache_Controller.NP.Inv::total     69645059                       (Unspecified)
board.cache_hierarchy.ruby_system.L1Cache_Controller.I.Load |     1000399     12.65%     12.65% |     1238971     15.67%     28.32% |     1057585     13.38%     41.70% |      954061     12.07%     53.76% |      863026     10.92%     64.68% |      849537     10.74%     75.42% |      994379     12.58%     88.00% |      948760     12.00%    100.00% (Unspecified)
board.cache_hierarchy.ruby_system.L1Cache_Controller.I.Load::total      7906718                       (Unspecified)
board.cache_hierarchy.ruby_system.L1Cache_Controller.I.Ifetch |      849660     11.68%     11.68% |     1445786     19.87%     31.55% |      868119     11.93%     43.48% |      847989     11.65%     55.13% |      787169     10.82%     65.95% |      794367     10.92%     76.86% |      846589     11.63%     88.50% |      836838     11.50%    100.00% (Unspecified)
board.cache_hierarchy.ruby_system.L1Cache_Controller.I.Ifetch::total      7276517                       (Unspecified)
board.cache_hierarchy.ruby_system.L1Cache_Controller.I.Store |      245844     12.99%     12.99% |      333386     17.62%     30.61% |      245132     12.95%     43.56% |      219386     11.59%     55.16% |      200801     10.61%     65.77% |      202826     10.72%     76.49% |      225851     11.94%     88.42% |      219072     11.58%    100.00% (Unspecified)
board.cache_hierarchy.ruby_system.L1Cache_Controller.I.Store::total      1892298                       (Unspecified)
board.cache_hierarchy.ruby_system.L1Cache_Controller.I.Inv |          12     18.75%     18.75% |           6      9.38%     28.12% |          11     17.19%     45.31% |           6      9.38%     54.69% |           4      6.25%     60.94% |           8     12.50%     73.44% |           4      6.25%     79.69% |          13     20.31%    100.00% (Unspecified)
board.cache_hierarchy.ruby_system.L1Cache_Controller.I.Inv::total           64                       (Unspecified)
board.cache_hierarchy.ruby_system.L1Cache_Controller.I.L1_Replacement |     3798275     14.31%     14.31% |     3451690     13.01%     27.32% |     3758335     14.16%     41.49% |     3076034     11.59%     53.08% |     2805455     10.57%     63.65% |     2842132     10.71%     74.36% |     3528125     13.30%     87.66% |     3274089     12.34%    100.00% (Unspecified)
board.cache_hierarchy.ruby_system.L1Cache_Controller.I.L1_Replacement::total     26534135                       (Unspecified)
board.cache_hierarchy.ruby_system.L1Cache_Controller.S.Load |     9450074     12.92%     12.92% |    11141582     15.24%     28.16% |    12665971     17.32%     45.48% |     9300594     12.72%     58.20% |     7222437      9.88%     68.07% |     6965882      9.53%     77.60% |     7938459     10.86%     88.46% |     8441896     11.54%    100.00% (Unspecified)
board.cache_hierarchy.ruby_system.L1Cache_Controller.S.Load::total     73126895                       (Unspecified)
board.cache_hierarchy.ruby_system.L1Cache_Controller.S.Ifetch |    95822908     14.78%     14.78% |    87026129     13.43%     28.21% |    83700547     12.91%     41.13% |    64312790      9.92%     51.05% |    68447654     10.56%     61.61% |    74283263     11.46%     73.07% |    90267036     13.93%     87.00% |    84277006     13.00%    100.00% (Unspecified)
board.cache_hierarchy.ruby_system.L1Cache_Controller.S.Ifetch::total    648137333                       (Unspecified)
board.cache_hierarchy.ruby_system.L1Cache_Controller.S.Store |       83266     16.54%     16.54% |       94485     18.77%     35.31% |       66334     13.18%     48.49% |       47029      9.34%     57.83% |       45935      9.13%     66.96% |       45712      9.08%     76.04% |       52391     10.41%     86.45% |       68230     13.55%    100.00% (Unspecified)
board.cache_hierarchy.ruby_system.L1Cache_Controller.S.Store::total       503382                       (Unspecified)
board.cache_hierarchy.ruby_system.L1Cache_Controller.S.Inv |     3008851     13.09%     13.09% |     3630885     15.79%     28.88% |     3081562     13.40%     42.28% |     2745449     11.94%     54.22% |     2455947     10.68%     64.90% |     2464884     10.72%     75.62% |     2847151     12.38%     88.00% |     2759212     12.00%    100.00% (Unspecified)
board.cache_hierarchy.ruby_system.L1Cache_Controller.S.Inv::total     22993941                       (Unspecified)
board.cache_hierarchy.ruby_system.L1Cache_Controller.S.L1_Replacement |    14643202     15.62%     15.62% |    12007007     12.81%     28.42% |    12540040     13.37%     41.80% |     8924571      9.52%     51.32% |     9904386     10.56%     61.88% |     9682804     10.33%     72.21% |    13064558     13.93%     86.14% |    12993477     13.86%    100.00% (Unspecified)
board.cache_hierarchy.ruby_system.L1Cache_Controller.S.L1_Replacement::total     93760045                       (Unspecified)
board.cache_hierarchy.ruby_system.L1Cache_Controller.E.Load |    63786165     14.77%     14.77% |    55945829     12.96%     27.73% |    56902675     13.18%     40.91% |    42172246      9.77%     50.68% |    46778776     10.83%     61.51% |    50048134     11.59%     73.10% |    61086922     14.15%     87.25% |    55045830     12.75%    100.00% (Unspecified)
board.cache_hierarchy.ruby_system.L1Cache_Controller.E.Load::total    431766577                       (Unspecified)
board.cache_hierarchy.ruby_system.L1Cache_Controller.E.Store |     1225550     15.44%     15.44% |     1032418     13.01%     28.45% |     1058017     13.33%     41.79% |      784293      9.88%     51.67% |      828021     10.43%     62.11% |      864074     10.89%     72.99% |     1086355     13.69%     86.69% |     1056580     13.31%    100.00% (Unspecified)
board.cache_hierarchy.ruby_system.L1Cache_Controller.E.Store::total      7935308                       (Unspecified)
board.cache_hierarchy.ruby_system.L1Cache_Controller.E.Inv |     1552831     13.93%     13.93% |     1479284     13.27%     27.21% |     1530244     13.73%     40.94% |     1293384     11.61%     52.55% |     1203953     10.80%     63.35% |     1211025     10.87%     74.22% |     1520721     13.65%     87.86% |     1352532     12.14%    100.00% (Unspecified)
board.cache_hierarchy.ruby_system.L1Cache_Controller.E.Inv::total     11143974                       (Unspecified)
board.cache_hierarchy.ruby_system.L1Cache_Controller.E.L1_Replacement |     3925895     15.37%     15.37% |     3377322     13.22%     28.59% |     3211784     12.57%     41.16% |     2188708      8.57%     49.73% |     2683700     10.51%     60.23% |     3127429     12.24%     72.47% |     3619612     14.17%     86.64% |     3412263     13.36%    100.00% (Unspecified)
board.cache_hierarchy.ruby_system.L1Cache_Controller.E.L1_Replacement::total     25546713                       (Unspecified)
board.cache_hierarchy.ruby_system.L1Cache_Controller.E.Fwd_GETX |        4478     14.66%     14.66% |        4530     14.83%     29.48% |        4125     13.50%     42.99% |        2763      9.04%     52.03% |        3189     10.44%     62.47% |        2945      9.64%     72.11% |        4310     14.11%     86.21% |        4212     13.79%    100.00% (Unspecified)
board.cache_hierarchy.ruby_system.L1Cache_Controller.E.Fwd_GETX::total        30552                       (Unspecified)
board.cache_hierarchy.ruby_system.L1Cache_Controller.E.Fwd_GETS |      323306     15.89%     15.89% |      266791     13.11%     29.00% |      282287     13.87%     42.87% |      208131     10.23%     53.09% |      209875     10.31%     63.41% |      212499     10.44%     73.85% |      271623     13.35%     87.20% |      260593     12.80%    100.00% (Unspecified)
board.cache_hierarchy.ruby_system.L1Cache_Controller.E.Fwd_GETS::total      2035105                       (Unspecified)
board.cache_hierarchy.ruby_system.L1Cache_Controller.E.Fwd_GET_INSTR |          27     20.93%     20.93% |           6      4.65%     25.58% |          12      9.30%     34.88% |          18     13.95%     48.84% |          18     13.95%     62.79% |          13     10.08%     72.87% |          22     17.05%     89.92% |          13     10.08%    100.00% (Unspecified)
board.cache_hierarchy.ruby_system.L1Cache_Controller.E.Fwd_GET_INSTR::total          129                       (Unspecified)
board.cache_hierarchy.ruby_system.L1Cache_Controller.M.Load |    74583187     14.82%     14.82% |    66308111     13.18%     28.00% |    65666215     13.05%     41.04% |    50811755     10.10%     51.14% |    53954083     10.72%     61.86% |    55678605     11.06%     72.93% |    70323781     13.97%     86.90% |    65931938     13.10%    100.00% (Unspecified)
board.cache_hierarchy.ruby_system.L1Cache_Controller.M.Load::total    503257675                       (Unspecified)
board.cache_hierarchy.ruby_system.L1Cache_Controller.M.Store |    90448917     14.52%     14.52% |    87510084     14.05%     28.58% |    80620612     12.95%     41.52% |    61346811      9.85%     51.37% |    66735956     10.72%     62.09% |    69058573     11.09%     73.18% |    86684851     13.92%     87.10% |    80336581     12.90%    100.00% (Unspecified)
board.cache_hierarchy.ruby_system.L1Cache_Controller.M.Store::total    622742385                       (Unspecified)
board.cache_hierarchy.ruby_system.L1Cache_Controller.M.Inv |     1304574     14.07%     14.07% |     1330321     14.34%     28.41% |     1288427     13.89%     42.30% |     1039728     11.21%     53.51% |      976985     10.53%     64.05% |      993405     10.71%     74.76% |     1203746     12.98%     87.74% |     1137359     12.26%    100.00% (Unspecified)
board.cache_hierarchy.ruby_system.L1Cache_Controller.M.Inv::total      9274545                       (Unspecified)
board.cache_hierarchy.ruby_system.L1Cache_Controller.M.L1_Replacement |     2221324     15.30%     15.30% |     2192878     15.11%     30.41% |     1849977     12.75%     43.16% |     1205983      8.31%     51.47% |     1462429     10.08%     61.54% |     1590793     10.96%     72.51% |     1995342     13.75%     86.25% |     1995221     13.75%    100.00% (Unspecified)
board.cache_hierarchy.ruby_system.L1Cache_Controller.M.L1_Replacement::total     14513947                       (Unspecified)
board.cache_hierarchy.ruby_system.L1Cache_Controller.M.Fwd_GETX |       23423     14.01%     14.01% |       23877     14.28%     28.29% |       23881     14.29%     42.58% |       15617      9.34%     51.92% |       16746     10.02%     61.94% |       17458     10.44%     72.38% |       19885     11.90%     84.28% |       26284     15.72%    100.00% (Unspecified)
board.cache_hierarchy.ruby_system.L1Cache_Controller.M.Fwd_GETX::total       167171                       (Unspecified)
board.cache_hierarchy.ruby_system.L1Cache_Controller.M.Fwd_GETS |      108130     18.64%     18.64% |       89171     15.37%     34.01% |       73353     12.65%     46.66% |       51072      8.80%     55.46% |       54307      9.36%     64.83% |       54314      9.36%     74.19% |       66864     11.53%     85.72% |       82852     14.28%    100.00% (Unspecified)
board.cache_hierarchy.ruby_system.L1Cache_Controller.M.Fwd_GETS::total       580063                       (Unspecified)
board.cache_hierarchy.ruby_system.L1Cache_Controller.IS.Inv |         187      3.19%      3.19% |         971     16.57%     19.76% |        1967     33.57%     53.34% |        1556     26.56%     79.89% |         664     11.33%     91.23% |         179      3.06%     94.28% |         143      2.44%     96.72% |         192      3.28%    100.00% (Unspecified)
board.cache_hierarchy.ruby_system.L1Cache_Controller.IS.Inv::total         5859                       (Unspecified)
board.cache_hierarchy.ruby_system.L1Cache_Controller.IS.L1_Replacement |         833     11.97%     11.97% |        1036     14.89%     26.86% |         976     14.03%     40.89% |         847     12.17%     53.06% |         744     10.69%     63.75% |         794     11.41%     75.17% |         894     12.85%     88.01% |         834     11.99%    100.00% (Unspecified)
board.cache_hierarchy.ruby_system.L1Cache_Controller.IS.L1_Replacement::total         6958                       (Unspecified)
board.cache_hierarchy.ruby_system.L1Cache_Controller.IS.Data_Exclusive |     7032258     15.06%     15.06% |     6160546     13.19%     28.25% |     6086453     13.04%     41.29% |     4477288      9.59%     50.88% |     4928742     10.56%     61.44% |     5417969     11.60%     73.04% |     6502637     13.93%     86.97% |     6086180     13.03%    100.00% (Unspecified)
board.cache_hierarchy.ruby_system.L1Cache_Controller.IS.Data_Exclusive::total     46692073                       (Unspecified)
board.cache_hierarchy.ruby_system.L1Cache_Controller.IS.DataS_fromL1 |      349285     13.35%     13.35% |      533574     20.40%     33.76% |      356643     13.64%     47.39% |      277685     10.62%     58.01% |      248118      9.49%     67.50% |      239945      9.17%     76.67% |      303333     11.60%     88.27% |      306877     11.73%    100.00% (Unspecified)
board.cache_hierarchy.ruby_system.L1Cache_Controller.IS.DataS_fromL1::total      2615460                       (Unspecified)
board.cache_hierarchy.ruby_system.L1Cache_Controller.IS.Data_all_Acks |    16955043     15.13%     15.13% |    14843376     13.25%     28.38% |    14975646     13.37%     41.75% |    11180149      9.98%     51.73% |    11893955     10.62%     62.35% |    11686635     10.43%     72.78% |    15322276     13.68%     86.46% |    15170589     13.54%    100.00% (Unspecified)
board.cache_hierarchy.ruby_system.L1Cache_Controller.IS.Data_all_Acks::total    112027669                       (Unspecified)
board.cache_hierarchy.ruby_system.L1Cache_Controller.IM.Inv |           0      0.00%      0.00% |           3     27.27%     27.27% |           1      9.09%     36.36% |           1      9.09%     45.45% |           2     18.18%     63.64% |           0      0.00%     63.64% |           1      9.09%     72.73% |           3     27.27%    100.00% (Unspecified)
board.cache_hierarchy.ruby_system.L1Cache_Controller.IM.Inv::total           11                       (Unspecified)
board.cache_hierarchy.ruby_system.L1Cache_Controller.IM.L1_Replacement |         135     12.56%     12.56% |         179     16.65%     29.21% |         137     12.74%     41.95% |         120     11.16%     53.12% |         115     10.70%     63.81% |         120     11.16%     74.98% |         133     12.37%     87.35% |         136     12.65%    100.00% (Unspecified)
board.cache_hierarchy.ruby_system.L1Cache_Controller.IM.L1_Replacement::total         1075                       (Unspecified)
board.cache_hierarchy.ruby_system.L1Cache_Controller.IM.Data |        4807     40.06%     40.06% |         883      7.36%     47.42% |        1266     10.55%     57.97% |         802      6.68%     64.65% |         720      6.00%     70.65% |         966      8.05%     78.70% |         748      6.23%     84.93% |        1808     15.07%    100.00% (Unspecified)
board.cache_hierarchy.ruby_system.L1Cache_Controller.IM.Data::total        12000                       (Unspecified)
board.cache_hierarchy.ruby_system.L1Cache_Controller.IM.Data_all_Acks |     2345284     14.57%     14.57% |     2509878     15.59%     30.16% |     2111601     13.12%     43.28% |     1481667      9.20%     52.49% |     1637326     10.17%     62.66% |     1747020     10.85%     73.51% |     2147343     13.34%     86.85% |     2116376     13.15%    100.00% (Unspecified)
board.cache_hierarchy.ruby_system.L1Cache_Controller.IM.Data_all_Acks::total     16096495                       (Unspecified)
board.cache_hierarchy.ruby_system.L1Cache_Controller.IM.Ack |           1      4.00%      4.00% |           0      0.00%      4.00% |           3     12.00%     16.00% |           4     16.00%     32.00% |           2      8.00%     40.00% |           5     20.00%     60.00% |           2      8.00%     68.00% |           8     32.00%    100.00% (Unspecified)
board.cache_hierarchy.ruby_system.L1Cache_Controller.IM.Ack::total           25                       (Unspecified)
board.cache_hierarchy.ruby_system.L1Cache_Controller.SM.Inv |        1241     11.29%     11.29% |        1165     10.60%     21.89% |        1580     14.37%     36.26% |        1391     12.65%     48.92% |        1535     13.96%     62.88% |        1802     16.39%     79.28% |        1000      9.10%     88.37% |        1278     11.63%    100.00% (Unspecified)
board.cache_hierarchy.ruby_system.L1Cache_Controller.SM.Inv::total        10992                       (Unspecified)
board.cache_hierarchy.ruby_system.L1Cache_Controller.SM.L1_Replacement |           0      0.00%      0.00% |           0      0.00%      0.00% |           0      0.00%      0.00% |           0      0.00%      0.00% |           0      0.00%      0.00% |           0      0.00%      0.00% |           1    100.00%    100.00% |           0      0.00%    100.00% (Unspecified)
board.cache_hierarchy.ruby_system.L1Cache_Controller.SM.L1_Replacement::total            1                       (Unspecified)
board.cache_hierarchy.ruby_system.L1Cache_Controller.SM.Ack |      126333     21.77%     21.77% |      100161     17.26%     39.02% |       72855     12.55%     51.58% |       51712      8.91%     60.49% |       50686      8.73%     69.22% |       50487      8.70%     77.92% |       56294      9.70%     87.62% |       71869     12.38%    100.00% (Unspecified)
board.cache_hierarchy.ruby_system.L1Cache_Controller.SM.Ack::total       580397                       (Unspecified)
board.cache_hierarchy.ruby_system.L1Cache_Controller.SM.Ack_all |       86832     17.22%     17.22% |       94203     18.68%     35.89% |       66020     13.09%     48.98% |       46440      9.21%     58.19% |       45120      8.95%     67.13% |       44876      8.90%     76.03% |       52139     10.34%     86.37% |       68760     13.63%    100.00% (Unspecified)
board.cache_hierarchy.ruby_system.L1Cache_Controller.SM.Ack_all::total       504390                       (Unspecified)
board.cache_hierarchy.ruby_system.L1Cache_Controller.IS_I.Data_Exclusive |          21     18.92%     18.92% |          16     14.41%     33.33% |          16     14.41%     47.75% |           9      8.11%     55.86% |          14     12.61%     68.47% |          16     14.41%     82.88% |           6      5.41%     88.29% |          13     11.71%    100.00% (Unspecified)
board.cache_hierarchy.ruby_system.L1Cache_Controller.IS_I.Data_Exclusive::total          111                       (Unspecified)
board.cache_hierarchy.ruby_system.L1Cache_Controller.IS_I.DataS_fromL1 |           0      0.00%      0.00% |           0      0.00%      0.00% |           0      0.00%      0.00% |           2    100.00%    100.00% |           0      0.00%    100.00% |           0      0.00%    100.00% |           0      0.00%    100.00% |           0      0.00%    100.00% (Unspecified)
board.cache_hierarchy.ruby_system.L1Cache_Controller.IS_I.DataS_fromL1::total            2                       (Unspecified)
board.cache_hierarchy.ruby_system.L1Cache_Controller.IS_I.Data_all_Acks |         166      2.89%      2.89% |         955     16.62%     19.51% |        1951     33.95%     53.46% |        1545     26.89%     80.35% |         650     11.31%     91.66% |         163      2.84%     94.50% |         137      2.38%     96.88% |         179      3.12%    100.00% (Unspecified)
board.cache_hierarchy.ruby_system.L1Cache_Controller.IS_I.Data_all_Acks::total         5746                       (Unspecified)
board.cache_hierarchy.ruby_system.L1Cache_Controller.M_I.Load |        1105     14.13%     14.13% |         914     11.69%     25.82% |        1015     12.98%     38.80% |         563      7.20%     46.00% |         692      8.85%     54.85% |        1187     15.18%     70.03% |        1176     15.04%     85.06% |        1168     14.94%    100.00% (Unspecified)
board.cache_hierarchy.ruby_system.L1Cache_Controller.M_I.Load::total         7820                       (Unspecified)
board.cache_hierarchy.ruby_system.L1Cache_Controller.M_I.Ifetch |         262     18.21%     18.21% |         118      8.20%     26.41% |         186     12.93%     39.33% |         175     12.16%     51.49% |         174     12.09%     63.59% |         109      7.57%     71.16% |         195     13.55%     84.71% |         220     15.29%    100.00% (Unspecified)
board.cache_hierarchy.ruby_system.L1Cache_Controller.M_I.Ifetch::total         1439                       (Unspecified)
board.cache_hierarchy.ruby_system.L1Cache_Controller.M_I.Store |          81     11.49%     11.49% |          93     13.19%     24.68% |          91     12.91%     37.59% |          66      9.36%     46.95% |          82     11.63%     58.58% |         100     14.18%     72.77% |          82     11.63%     84.40% |         110     15.60%    100.00% (Unspecified)
board.cache_hierarchy.ruby_system.L1Cache_Controller.M_I.Store::total          705                       (Unspecified)
board.cache_hierarchy.ruby_system.L1Cache_Controller.M_I.Inv |         801     12.56%     12.56% |         830     13.01%     25.57% |         877     13.75%     39.32% |         717     11.24%     50.56% |         696     10.91%     61.47% |         755     11.84%     73.30% |         947     14.85%     88.15% |         756     11.85%    100.00% (Unspecified)
board.cache_hierarchy.ruby_system.L1Cache_Controller.M_I.Inv::total         6379                       (Unspecified)
board.cache_hierarchy.ruby_system.L1Cache_Controller.M_I.Fwd_GETX |           1     20.00%     20.00% |           0      0.00%     20.00% |           0      0.00%     20.00% |           1     20.00%     40.00% |           0      0.00%     40.00% |           1     20.00%     60.00% |           1     20.00%     80.00% |           1     20.00%    100.00% (Unspecified)
board.cache_hierarchy.ruby_system.L1Cache_Controller.M_I.Fwd_GETX::total            5                       (Unspecified)
board.cache_hierarchy.ruby_system.L1Cache_Controller.M_I.Fwd_GETS |          23     15.23%     15.23% |          21     13.91%     29.14% |          16     10.60%     39.74% |          13      8.61%     48.34% |          16     10.60%     58.94% |          18     11.92%     70.86% |          27     17.88%     88.74% |          17     11.26%    100.00% (Unspecified)
board.cache_hierarchy.ruby_system.L1Cache_Controller.M_I.Fwd_GETS::total          151                       (Unspecified)
board.cache_hierarchy.ruby_system.L1Cache_Controller.M_I.Fwd_GET_INSTR |           0      0.00%      0.00% |           2     14.29%     14.29% |           2     14.29%     28.57% |           5     35.71%     64.29% |           5     35.71%    100.00% |           0      0.00%    100.00% |           0      0.00%    100.00% |           0      0.00%    100.00% (Unspecified)
board.cache_hierarchy.ruby_system.L1Cache_Controller.M_I.Fwd_GET_INSTR::total           14                       (Unspecified)
board.cache_hierarchy.ruby_system.L1Cache_Controller.M_I.WB_Ack |     6146394     15.35%     15.35% |     5569347     13.90%     29.25% |     5060866     12.64%     41.88% |     3393955      8.47%     50.36% |     4145412     10.35%     60.71% |     4717448     11.78%     72.49% |     5613979     14.02%     86.50% |     5406710     13.50%    100.00% (Unspecified)
board.cache_hierarchy.ruby_system.L1Cache_Controller.M_I.WB_Ack::total     40054111                       (Unspecified)
board.cache_hierarchy.ruby_system.L1Cache_Controller.SINK_WB_ACK.Load |           1     16.67%     16.67% |           1     16.67%     33.33% |           1     16.67%     50.00% |           1     16.67%     66.67% |           0      0.00%     66.67% |           1     16.67%     83.33% |           0      0.00%     83.33% |           1     16.67%    100.00% (Unspecified)
board.cache_hierarchy.ruby_system.L1Cache_Controller.SINK_WB_ACK.Load::total            6                       (Unspecified)
board.cache_hierarchy.ruby_system.L1Cache_Controller.SINK_WB_ACK.WB_Ack |         825     12.60%     12.60% |         853     13.02%     25.62% |         895     13.67%     39.29% |         736     11.24%     50.53% |         717     10.95%     61.48% |         774     11.82%     73.29% |         975     14.89%     88.18% |         774     11.82%    100.00% (Unspecified)
board.cache_hierarchy.ruby_system.L1Cache_Controller.SINK_WB_ACK.WB_Ack::total         6549                       (Unspecified)
board.cache_hierarchy.ruby_system.L2Cache_Controller.L1_GET_INSTR    107423409      0.00%      0.00% (Unspecified)
board.cache_hierarchy.ruby_system.L2Cache_Controller.L1_GETS     54076208      0.00%      0.00% (Unspecified)
board.cache_hierarchy.ruby_system.L2Cache_Controller.L1_GETX     16144291      0.00%      0.00% (Unspecified)
board.cache_hierarchy.ruby_system.L2Cache_Controller.L1_UPGRADE       507427      0.00%      0.00% (Unspecified)
board.cache_hierarchy.ruby_system.L2Cache_Controller.L1_PUTX     40054442      0.00%      0.00% (Unspecified)
board.cache_hierarchy.ruby_system.L2Cache_Controller.L1_PUTX_old        12559      0.00%      0.00% (Unspecified)
board.cache_hierarchy.ruby_system.L2Cache_Controller.L2_Replacement     12725085      0.00%      0.00% (Unspecified)
board.cache_hierarchy.ruby_system.L2Cache_Controller.L2_Replacement_clean     99147130      0.00%      0.00% (Unspecified)
board.cache_hierarchy.ruby_system.L2Cache_Controller.Mem_Data    111904481      0.00%      0.00% (Unspecified)
board.cache_hierarchy.ruby_system.L2Cache_Controller.Mem_Ack    111900386      0.00%      0.00% (Unspecified)
board.cache_hierarchy.ruby_system.L2Cache_Controller.WB_Data      9857470      0.00%      0.00% (Unspecified)
board.cache_hierarchy.ruby_system.L2Cache_Controller.WB_Data_clean      2038916      0.00%      0.00% (Unspecified)
board.cache_hierarchy.ruby_system.L2Cache_Controller.Ack     29179904      0.00%      0.00% (Unspecified)
board.cache_hierarchy.ruby_system.L2Cache_Controller.Ack_all     74027574      0.00%      0.00% (Unspecified)
board.cache_hierarchy.ruby_system.L2Cache_Controller.Unblock      2615462      0.00%      0.00% (Unspecified)
board.cache_hierarchy.ruby_system.L2Cache_Controller.Exclusive_Unblock     63293069      0.00%      0.00% (Unspecified)
board.cache_hierarchy.ruby_system.L2Cache_Controller.MEM_Inv        56350      0.00%      0.00% (Unspecified)
board.cache_hierarchy.ruby_system.L2Cache_Controller.NP.L1_GET_INSTR     60238405      0.00%      0.00% (Unspecified)
board.cache_hierarchy.ruby_system.L2Cache_Controller.NP.L1_GETS     37312215      0.00%      0.00% (Unspecified)
board.cache_hierarchy.ruby_system.L2Cache_Controller.NP.L1_GETX     14353862      0.00%      0.00% (Unspecified)
board.cache_hierarchy.ruby_system.L2Cache_Controller.NP.L1_PUTX_old         6191      0.00%      0.00% (Unspecified)
board.cache_hierarchy.ruby_system.L2Cache_Controller.SS.L1_GET_INSTR     43403596      0.00%      0.00% (Unspecified)
board.cache_hierarchy.ruby_system.L2Cache_Controller.SS.L1_GETS      3436564      0.00%      0.00% (Unspecified)
board.cache_hierarchy.ruby_system.L2Cache_Controller.SS.L1_GETX        12036      0.00%      0.00% (Unspecified)
board.cache_hierarchy.ruby_system.L2Cache_Controller.SS.L1_UPGRADE       492390      0.00%      0.00% (Unspecified)
board.cache_hierarchy.ruby_system.L2Cache_Controller.SS.L1_PUTX          165      0.00%      0.00% (Unspecified)
board.cache_hierarchy.ruby_system.L2Cache_Controller.SS.L2_Replacement       192040      0.00%      0.00% (Unspecified)
board.cache_hierarchy.ruby_system.L2Cache_Controller.SS.L2_Replacement_clean     62691560      0.00%      0.00% (Unspecified)
board.cache_hierarchy.ruby_system.L2Cache_Controller.M.L1_GET_INSTR         1915      0.00%      0.00% (Unspecified)
board.cache_hierarchy.ruby_system.L2Cache_Controller.M.L1_GETS      9913846      0.00%      0.00% (Unspecified)
board.cache_hierarchy.ruby_system.L2Cache_Controller.M.L1_GETX      1544869      0.00%      0.00% (Unspecified)
board.cache_hierarchy.ruby_system.L2Cache_Controller.M.L2_Replacement     11577559      0.00%      0.00% (Unspecified)
board.cache_hierarchy.ruby_system.L2Cache_Controller.M.L2_Replacement_clean     16993469      0.00%      0.00% (Unspecified)
board.cache_hierarchy.ruby_system.L2Cache_Controller.M.MEM_Inv        20860      0.00%      0.00% (Unspecified)
board.cache_hierarchy.ruby_system.L2Cache_Controller.MT.L1_GET_INSTR          143      0.00%      0.00% (Unspecified)
board.cache_hierarchy.ruby_system.L2Cache_Controller.MT.L1_GETS      2615319      0.00%      0.00% (Unspecified)
board.cache_hierarchy.ruby_system.L2Cache_Controller.MT.L1_GETX       197728      0.00%      0.00% (Unspecified)
board.cache_hierarchy.ruby_system.L2Cache_Controller.MT.L1_PUTX     40054111      0.00%      0.00% (Unspecified)
board.cache_hierarchy.ruby_system.L2Cache_Controller.MT.L1_PUTX_old            5      0.00%      0.00% (Unspecified)
board.cache_hierarchy.ruby_system.L2Cache_Controller.MT.L2_Replacement       955486      0.00%      0.00% (Unspecified)
board.cache_hierarchy.ruby_system.L2Cache_Controller.MT.L2_Replacement_clean     19462097      0.00%      0.00% (Unspecified)
board.cache_hierarchy.ruby_system.L2Cache_Controller.MT.MEM_Inv         7315      0.00%      0.00% (Unspecified)
board.cache_hierarchy.ruby_system.L2Cache_Controller.M_I.L1_GET_INSTR         9542      0.00%      0.00% (Unspecified)
board.cache_hierarchy.ruby_system.L2Cache_Controller.M_I.L1_GETS        35295      0.00%      0.00% (Unspecified)
board.cache_hierarchy.ruby_system.L2Cache_Controller.M_I.L1_GETX        15410      0.00%      0.00% (Unspecified)
board.cache_hierarchy.ruby_system.L2Cache_Controller.M_I.L1_PUTX_old          188      0.00%      0.00% (Unspecified)
board.cache_hierarchy.ruby_system.L2Cache_Controller.M_I.Mem_Ack    111900386      0.00%      0.00% (Unspecified)
board.cache_hierarchy.ruby_system.L2Cache_Controller.M_I.MEM_Inv        20860      0.00%      0.00% (Unspecified)
board.cache_hierarchy.ruby_system.L2Cache_Controller.MT_I.L1_GETS           10      0.00%      0.00% (Unspecified)
board.cache_hierarchy.ruby_system.L2Cache_Controller.MT_I.L1_PUTX_old          359      0.00%      0.00% (Unspecified)
board.cache_hierarchy.ruby_system.L2Cache_Controller.MT_I.WB_Data       756637      0.00%      0.00% (Unspecified)
board.cache_hierarchy.ruby_system.L2Cache_Controller.MT_I.WB_Data_clean          107      0.00%      0.00% (Unspecified)
board.cache_hierarchy.ruby_system.L2Cache_Controller.MT_I.Ack_all       206057      0.00%      0.00% (Unspecified)
board.cache_hierarchy.ruby_system.L2Cache_Controller.MT_I.MEM_Inv         7315      0.00%      0.00% (Unspecified)
board.cache_hierarchy.ruby_system.L2Cache_Controller.MCT_I.L1_GETS          235      0.00%      0.00% (Unspecified)
board.cache_hierarchy.ruby_system.L2Cache_Controller.MCT_I.L1_GETX           17      0.00%      0.00% (Unspecified)
board.cache_hierarchy.ruby_system.L2Cache_Controller.MCT_I.L1_PUTX_old         5816      0.00%      0.00% (Unspecified)
board.cache_hierarchy.ruby_system.L2Cache_Controller.MCT_I.WB_Data      8520753      0.00%      0.00% (Unspecified)
board.cache_hierarchy.ruby_system.L2Cache_Controller.MCT_I.WB_Data_clean         3427      0.00%      0.00% (Unspecified)
board.cache_hierarchy.ruby_system.L2Cache_Controller.MCT_I.Ack_all     10937917      0.00%      0.00% (Unspecified)
board.cache_hierarchy.ruby_system.L2Cache_Controller.I_I.L1_GET_INSTR         1378      0.00%      0.00% (Unspecified)
board.cache_hierarchy.ruby_system.L2Cache_Controller.I_I.L1_GETS          219      0.00%      0.00% (Unspecified)
board.cache_hierarchy.ruby_system.L2Cache_Controller.I_I.Ack     28890877      0.00%      0.00% (Unspecified)
board.cache_hierarchy.ruby_system.L2Cache_Controller.I_I.Ack_all     62691560      0.00%      0.00% (Unspecified)
board.cache_hierarchy.ruby_system.L2Cache_Controller.S_I.L1_GETS            9      0.00%      0.00% (Unspecified)
board.cache_hierarchy.ruby_system.L2Cache_Controller.S_I.L1_GETX            1      0.00%      0.00% (Unspecified)
board.cache_hierarchy.ruby_system.L2Cache_Controller.S_I.Ack       289027      0.00%      0.00% (Unspecified)
board.cache_hierarchy.ruby_system.L2Cache_Controller.S_I.Ack_all       192040      0.00%      0.00% (Unspecified)
board.cache_hierarchy.ruby_system.L2Cache_Controller.ISS.L1_GET_INSTR            1      0.00%      0.00% (Unspecified)
board.cache_hierarchy.ruby_system.L2Cache_Controller.ISS.L1_GETS       533876      0.00%      0.00% (Unspecified)
board.cache_hierarchy.ruby_system.L2Cache_Controller.ISS.L1_GETX          147      0.00%      0.00% (Unspecified)
board.cache_hierarchy.ruby_system.L2Cache_Controller.ISS.L2_Replacement_clean            3      0.00%      0.00% (Unspecified)
board.cache_hierarchy.ruby_system.L2Cache_Controller.ISS.Mem_Data     36778338      0.00%      0.00% (Unspecified)
board.cache_hierarchy.ruby_system.L2Cache_Controller.IS.L1_GET_INSTR      3768425      0.00%      0.00% (Unspecified)
board.cache_hierarchy.ruby_system.L2Cache_Controller.IS.L1_GETS       116757      0.00%      0.00% (Unspecified)
board.cache_hierarchy.ruby_system.L2Cache_Controller.IS.L1_GETX            6      0.00%      0.00% (Unspecified)
board.cache_hierarchy.ruby_system.L2Cache_Controller.IS.Mem_Data     60772281      0.00%      0.00% (Unspecified)
board.cache_hierarchy.ruby_system.L2Cache_Controller.IM.L1_GETS          148      0.00%      0.00% (Unspecified)
board.cache_hierarchy.ruby_system.L2Cache_Controller.IM.L1_GETX         1266      0.00%      0.00% (Unspecified)
board.cache_hierarchy.ruby_system.L2Cache_Controller.IM.Mem_Data     14353862      0.00%      0.00% (Unspecified)
board.cache_hierarchy.ruby_system.L2Cache_Controller.SS_MB.L1_GETS        40670      0.00%      0.00% (Unspecified)
board.cache_hierarchy.ruby_system.L2Cache_Controller.SS_MB.L1_GETX         3376      0.00%      0.00% (Unspecified)
board.cache_hierarchy.ruby_system.L2Cache_Controller.SS_MB.L1_UPGRADE        10984      0.00%      0.00% (Unspecified)
board.cache_hierarchy.ruby_system.L2Cache_Controller.SS_MB.Exclusive_Unblock       504426      0.00%      0.00% (Unspecified)
board.cache_hierarchy.ruby_system.L2Cache_Controller.MT_MB.L1_GET_INSTR            1      0.00%      0.00% (Unspecified)
board.cache_hierarchy.ruby_system.L2Cache_Controller.MT_MB.L1_GETS        19748      0.00%      0.00% (Unspecified)
board.cache_hierarchy.ruby_system.L2Cache_Controller.MT_MB.L1_GETX        14253      0.00%      0.00% (Unspecified)
board.cache_hierarchy.ruby_system.L2Cache_Controller.MT_MB.L1_PUTX            5      0.00%      0.00% (Unspecified)
board.cache_hierarchy.ruby_system.L2Cache_Controller.MT_MB.L2_Replacement_clean            1      0.00%      0.00% (Unspecified)
board.cache_hierarchy.ruby_system.L2Cache_Controller.MT_MB.Exclusive_Unblock     62788643      0.00%      0.00% (Unspecified)
board.cache_hierarchy.ruby_system.L2Cache_Controller.MT_IIB.L1_GET_INSTR            3      0.00%      0.00% (Unspecified)
board.cache_hierarchy.ruby_system.L2Cache_Controller.MT_IIB.L1_GETS        49232      0.00%      0.00% (Unspecified)
board.cache_hierarchy.ruby_system.L2Cache_Controller.MT_IIB.L1_GETX         1083      0.00%      0.00% (Unspecified)
board.cache_hierarchy.ruby_system.L2Cache_Controller.MT_IIB.L1_PUTX          161      0.00%      0.00% (Unspecified)
board.cache_hierarchy.ruby_system.L2Cache_Controller.MT_IIB.WB_Data       564002      0.00%      0.00% (Unspecified)
board.cache_hierarchy.ruby_system.L2Cache_Controller.MT_IIB.WB_Data_clean      2015211      0.00%      0.00% (Unspecified)
board.cache_hierarchy.ruby_system.L2Cache_Controller.MT_IIB.Unblock        36249      0.00%      0.00% (Unspecified)
board.cache_hierarchy.ruby_system.L2Cache_Controller.MT_IB.WB_Data        16078      0.00%      0.00% (Unspecified)
board.cache_hierarchy.ruby_system.L2Cache_Controller.MT_IB.WB_Data_clean        20171      0.00%      0.00% (Unspecified)
board.cache_hierarchy.ruby_system.L2Cache_Controller.MT_SB.L1_GETS         2065      0.00%      0.00% (Unspecified)
board.cache_hierarchy.ruby_system.L2Cache_Controller.MT_SB.L1_GETX          237      0.00%      0.00% (Unspecified)
board.cache_hierarchy.ruby_system.L2Cache_Controller.MT_SB.L1_UPGRADE         4053      0.00%      0.00% (Unspecified)
board.cache_hierarchy.ruby_system.L2Cache_Controller.MT_SB.Unblock      2579213      0.00%      0.00% (Unspecified)
board.cache_hierarchy.ruby_system.RequestType.LD.latency_hist_seqr::bucket_size         2048                       (Unspecified)
board.cache_hierarchy.ruby_system.RequestType.LD.latency_hist_seqr::max_bucket        20479                       (Unspecified)
board.cache_hierarchy.ruby_system.RequestType.LD.latency_hist_seqr::samples   1061575502                       (Unspecified)
board.cache_hierarchy.ruby_system.RequestType.LD.latency_hist_seqr::mean    10.543326                       (Unspecified)
board.cache_hierarchy.ruby_system.RequestType.LD.latency_hist_seqr::gmean     1.268140                       (Unspecified)
board.cache_hierarchy.ruby_system.RequestType.LD.latency_hist_seqr::stdev    54.649550                       (Unspecified)
board.cache_hierarchy.ruby_system.RequestType.LD.latency_hist_seqr |  1061573190    100.00%    100.00% |        2134      0.00%    100.00% |         126      0.00%    100.00% |          37      0.00%    100.00% |           8      0.00%    100.00% |           4      0.00%    100.00% |           3      0.00%    100.00% |           0      0.00%    100.00% |           0      0.00%    100.00% |           0      0.00%    100.00% (Unspecified)
board.cache_hierarchy.ruby_system.RequestType.LD.latency_hist_seqr::total   1061575502                       (Unspecified)
board.cache_hierarchy.ruby_system.RequestType.LD.hit_latency_hist_seqr::bucket_size            1                       (Unspecified)
board.cache_hierarchy.ruby_system.RequestType.LD.hit_latency_hist_seqr::max_bucket            9                       (Unspecified)
board.cache_hierarchy.ruby_system.RequestType.LD.hit_latency_hist_seqr::samples   1007670918                       (Unspecified)
board.cache_hierarchy.ruby_system.RequestType.LD.hit_latency_hist_seqr::mean     1.000821                       (Unspecified)
board.cache_hierarchy.ruby_system.RequestType.LD.hit_latency_hist_seqr::gmean     1.000569                       (Unspecified)
board.cache_hierarchy.ruby_system.RequestType.LD.hit_latency_hist_seqr::stdev     0.028652                       (Unspecified)
board.cache_hierarchy.ruby_system.RequestType.LD.hit_latency_hist_seqr |           0      0.00%      0.00% |  1006844647     99.92%     99.92% |      825749      0.08%    100.00% |         507      0.00%    100.00% |          15      0.00%    100.00% |           0      0.00%    100.00% |           0      0.00%    100.00% |           0      0.00%    100.00% |           0      0.00%    100.00% |           0      0.00%    100.00% (Unspecified)
board.cache_hierarchy.ruby_system.RequestType.LD.hit_latency_hist_seqr::total   1007670918                       (Unspecified)
board.cache_hierarchy.ruby_system.RequestType.LD.miss_latency_hist_seqr::bucket_size         2048                       (Unspecified)
board.cache_hierarchy.ruby_system.RequestType.LD.miss_latency_hist_seqr::max_bucket        20479                       (Unspecified)
board.cache_hierarchy.ruby_system.RequestType.LD.miss_latency_hist_seqr::samples     53904584                       (Unspecified)
board.cache_hierarchy.ruby_system.RequestType.LD.miss_latency_hist_seqr::mean   188.927143                       (Unspecified)
board.cache_hierarchy.ruby_system.RequestType.LD.miss_latency_hist_seqr::gmean   106.442427                       (Unspecified)
board.cache_hierarchy.ruby_system.RequestType.LD.miss_latency_hist_seqr::stdev   159.038868                       (Unspecified)
board.cache_hierarchy.ruby_system.RequestType.LD.miss_latency_hist_seqr |    53902272    100.00%    100.00% |        2134      0.00%    100.00% |         126      0.00%    100.00% |          37      0.00%    100.00% |           8      0.00%    100.00% |           4      0.00%    100.00% |           3      0.00%    100.00% |           0      0.00%    100.00% |           0      0.00%    100.00% |           0      0.00%    100.00% (Unspecified)
board.cache_hierarchy.ruby_system.RequestType.LD.miss_latency_hist_seqr::total     53904584                       (Unspecified)
board.cache_hierarchy.ruby_system.RequestType.ST.latency_hist_seqr::bucket_size         2048                       (Unspecified)
board.cache_hierarchy.ruby_system.RequestType.ST.latency_hist_seqr::max_bucket        20479                       (Unspecified)
board.cache_hierarchy.ruby_system.RequestType.ST.latency_hist_seqr::samples    623339922                       (Unspecified)
board.cache_hierarchy.ruby_system.RequestType.ST.latency_hist_seqr::mean     5.986343                       (Unspecified)
board.cache_hierarchy.ruby_system.RequestType.ST.latency_hist_seqr::gmean     1.138871                       (Unspecified)
board.cache_hierarchy.ruby_system.RequestType.ST.latency_hist_seqr::stdev    39.004009                       (Unspecified)
board.cache_hierarchy.ruby_system.RequestType.ST.latency_hist_seqr |   623339353    100.00%    100.00% |         535      0.00%    100.00% |          23      0.00%    100.00% |           7      0.00%    100.00% |           3      0.00%    100.00% |           0      0.00%    100.00% |           1      0.00%    100.00% |           0      0.00%    100.00% |           0      0.00%    100.00% |           0      0.00%    100.00% (Unspecified)
board.cache_hierarchy.ruby_system.RequestType.ST.latency_hist_seqr::total    623339922                       (Unspecified)
board.cache_hierarchy.ruby_system.RequestType.ST.hit_latency_hist_seqr::bucket_size         1024                       (Unspecified)
board.cache_hierarchy.ruby_system.RequestType.ST.hit_latency_hist_seqr::max_bucket        10239                       (Unspecified)
board.cache_hierarchy.ruby_system.RequestType.ST.hit_latency_hist_seqr::samples    608768522                       (Unspecified)
board.cache_hierarchy.ruby_system.RequestType.ST.hit_latency_hist_seqr::mean     1.053760                       (Unspecified)
board.cache_hierarchy.ruby_system.RequestType.ST.hit_latency_hist_seqr::gmean     1.011988                       (Unspecified)
board.cache_hierarchy.ruby_system.RequestType.ST.hit_latency_hist_seqr::stdev     3.418413                       (Unspecified)
board.cache_hierarchy.ruby_system.RequestType.ST.hit_latency_hist_seqr |   608768041    100.00%    100.00% |         476      0.00%    100.00% |           2      0.00%    100.00% |           2      0.00%    100.00% |           0      0.00%    100.00% |           1      0.00%    100.00% |           0      0.00%    100.00% |           0      0.00%    100.00% |           0      0.00%    100.00% |           0      0.00%    100.00% (Unspecified)
board.cache_hierarchy.ruby_system.RequestType.ST.hit_latency_hist_seqr::total    608768522                       (Unspecified)
board.cache_hierarchy.ruby_system.RequestType.ST.miss_latency_hist_seqr::bucket_size         2048                       (Unspecified)
board.cache_hierarchy.ruby_system.RequestType.ST.miss_latency_hist_seqr::max_bucket        20479                       (Unspecified)
board.cache_hierarchy.ruby_system.RequestType.ST.miss_latency_hist_seqr::samples     14571400                       (Unspecified)
board.cache_hierarchy.ruby_system.RequestType.ST.miss_latency_hist_seqr::mean   212.061335                       (Unspecified)
board.cache_hierarchy.ruby_system.RequestType.ST.miss_latency_hist_seqr::gmean   158.367776                       (Unspecified)
board.cache_hierarchy.ruby_system.RequestType.ST.miss_latency_hist_seqr::stdev   145.284576                       (Unspecified)
board.cache_hierarchy.ruby_system.RequestType.ST.miss_latency_hist_seqr |    14570836    100.00%    100.00% |         531      0.00%    100.00% |          22      0.00%    100.00% |           7      0.00%    100.00% |           3      0.00%    100.00% |           0      0.00%    100.00% |           1      0.00%    100.00% |           0      0.00%    100.00% |           0      0.00%    100.00% |           0      0.00%    100.00% (Unspecified)
board.cache_hierarchy.ruby_system.RequestType.ST.miss_latency_hist_seqr::total     14571400                       (Unspecified)
board.cache_hierarchy.ruby_system.RequestType.IFETCH.latency_hist_seqr::bucket_size         2048                       (Unspecified)
board.cache_hierarchy.ruby_system.RequestType.IFETCH.latency_hist_seqr::max_bucket        20479                       (Unspecified)
board.cache_hierarchy.ruby_system.RequestType.IFETCH.latency_hist_seqr::samples    755042525                       (Unspecified)
board.cache_hierarchy.ruby_system.RequestType.IFETCH.latency_hist_seqr::mean    21.382886                       (Unspecified)
board.cache_hierarchy.ruby_system.RequestType.IFETCH.latency_hist_seqr::gmean     1.828218                       (Unspecified)
board.cache_hierarchy.ruby_system.RequestType.IFETCH.latency_hist_seqr::stdev    74.229130                       (Unspecified)
board.cache_hierarchy.ruby_system.RequestType.IFETCH.latency_hist_seqr |   755039555    100.00%    100.00% |        2817      0.00%    100.00% |         119      0.00%    100.00% |          20      0.00%    100.00% |           8      0.00%    100.00% |           3      0.00%    100.00% |           3      0.00%    100.00% |           0      0.00%    100.00% |           0      0.00%    100.00% |           0      0.00%    100.00% (Unspecified)
board.cache_hierarchy.ruby_system.RequestType.IFETCH.latency_hist_seqr::total    755042525                       (Unspecified)
board.cache_hierarchy.ruby_system.RequestType.IFETCH.hit_latency_hist_seqr::bucket_size            1                       (Unspecified)
board.cache_hierarchy.ruby_system.RequestType.IFETCH.hit_latency_hist_seqr::max_bucket            9                       (Unspecified)
board.cache_hierarchy.ruby_system.RequestType.IFETCH.hit_latency_hist_seqr::samples    647666533                       (Unspecified)
board.cache_hierarchy.ruby_system.RequestType.IFETCH.hit_latency_hist_seqr::mean     1.000001                       (Unspecified)
board.cache_hierarchy.ruby_system.RequestType.IFETCH.hit_latency_hist_seqr::gmean     1.000001                       (Unspecified)
board.cache_hierarchy.ruby_system.RequestType.IFETCH.hit_latency_hist_seqr::stdev     0.001174                       (Unspecified)
board.cache_hierarchy.ruby_system.RequestType.IFETCH.hit_latency_hist_seqr |           0      0.00%      0.00% |   647665697    100.00%    100.00% |         817      0.00%    100.00% |          19      0.00%    100.00% |           0      0.00%    100.00% |           0      0.00%    100.00% |           0      0.00%    100.00% |           0      0.00%    100.00% |           0      0.00%    100.00% |           0      0.00%    100.00% (Unspecified)
board.cache_hierarchy.ruby_system.RequestType.IFETCH.hit_latency_hist_seqr::total    647666533                       (Unspecified)
board.cache_hierarchy.ruby_system.RequestType.IFETCH.miss_latency_hist_seqr::bucket_size         2048                       (Unspecified)
board.cache_hierarchy.ruby_system.RequestType.IFETCH.miss_latency_hist_seqr::max_bucket        20479                       (Unspecified)
board.cache_hierarchy.ruby_system.RequestType.IFETCH.miss_latency_hist_seqr::samples    107375992                       (Unspecified)
board.cache_hierarchy.ruby_system.RequestType.IFETCH.miss_latency_hist_seqr::mean   144.327617                       (Unspecified)
board.cache_hierarchy.ruby_system.RequestType.IFETCH.miss_latency_hist_seqr::gmean    69.585071                       (Unspecified)
board.cache_hierarchy.ruby_system.RequestType.IFETCH.miss_latency_hist_seqr::stdev   145.338858                       (Unspecified)
board.cache_hierarchy.ruby_system.RequestType.IFETCH.miss_latency_hist_seqr |   107373022    100.00%    100.00% |        2817      0.00%    100.00% |         119      0.00%    100.00% |          20      0.00%    100.00% |           8      0.00%    100.00% |           3      0.00%    100.00% |           3      0.00%    100.00% |           0      0.00%    100.00% |           0      0.00%    100.00% |           0      0.00%    100.00% (Unspecified)
board.cache_hierarchy.ruby_system.RequestType.IFETCH.miss_latency_hist_seqr::total    107375992                       (Unspecified)
board.cache_hierarchy.ruby_system.RequestType.RMW_Read.latency_hist_seqr::bucket_size         2048                       (Unspecified)
board.cache_hierarchy.ruby_system.RequestType.RMW_Read.latency_hist_seqr::max_bucket        20479                       (Unspecified)
board.cache_hierarchy.ruby_system.RequestType.RMW_Read.latency_hist_seqr::samples     13718507                       (Unspecified)
board.cache_hierarchy.ruby_system.RequestType.RMW_Read.latency_hist_seqr::mean    23.648255                       (Unspecified)
board.cache_hierarchy.ruby_system.RequestType.RMW_Read.latency_hist_seqr::gmean     1.742532                       (Unspecified)
board.cache_hierarchy.ruby_system.RequestType.RMW_Read.latency_hist_seqr::stdev    86.455257                       (Unspecified)
board.cache_hierarchy.ruby_system.RequestType.RMW_Read.latency_hist_seqr |    13718424    100.00%    100.00% |          78      0.00%    100.00% |           3      0.00%    100.00% |           0      0.00%    100.00% |           1      0.00%    100.00% |           0      0.00%    100.00% |           1      0.00%    100.00% |           0      0.00%    100.00% |           0      0.00%    100.00% |           0      0.00%    100.00% (Unspecified)
board.cache_hierarchy.ruby_system.RequestType.RMW_Read.latency_hist_seqr::total     13718507                       (Unspecified)
board.cache_hierarchy.ruby_system.RequestType.RMW_Read.hit_latency_hist_seqr::bucket_size          512                       (Unspecified)
board.cache_hierarchy.ruby_system.RequestType.RMW_Read.hit_latency_hist_seqr::max_bucket         5119                       (Unspecified)
board.cache_hierarchy.ruby_system.RequestType.RMW_Read.hit_latency_hist_seqr::samples     12523905                       (Unspecified)
board.cache_hierarchy.ruby_system.RequestType.RMW_Read.hit_latency_hist_seqr::mean     3.371165                       (Unspecified)
board.cache_hierarchy.ruby_system.RequestType.RMW_Read.hit_latency_hist_seqr::gmean     1.132165                       (Unspecified)
board.cache_hierarchy.ruby_system.RequestType.RMW_Read.hit_latency_hist_seqr::stdev    26.955180                       (Unspecified)
board.cache_hierarchy.ruby_system.RequestType.RMW_Read.hit_latency_hist_seqr |    12519043     99.96%     99.96% |        4158      0.03%     99.99% |         673      0.01%    100.00% |          25      0.00%    100.00% |           5      0.00%    100.00% |           1      0.00%    100.00% |           0      0.00%    100.00% |           0      0.00%    100.00% |           0      0.00%    100.00% |           0      0.00%    100.00% (Unspecified)
board.cache_hierarchy.ruby_system.RequestType.RMW_Read.hit_latency_hist_seqr::total     12523905                       (Unspecified)
board.cache_hierarchy.ruby_system.RequestType.RMW_Read.miss_latency_hist_seqr::bucket_size         2048                       (Unspecified)
board.cache_hierarchy.ruby_system.RequestType.RMW_Read.miss_latency_hist_seqr::max_bucket        20479                       (Unspecified)
board.cache_hierarchy.ruby_system.RequestType.RMW_Read.miss_latency_hist_seqr::samples      1194602                       (Unspecified)
board.cache_hierarchy.ruby_system.RequestType.RMW_Read.miss_latency_hist_seqr::mean   236.228131                       (Unspecified)
board.cache_hierarchy.ruby_system.RequestType.RMW_Read.miss_latency_hist_seqr::gmean   160.134052                       (Unspecified)
board.cache_hierarchy.ruby_system.RequestType.RMW_Read.miss_latency_hist_seqr::stdev   169.462125                       (Unspecified)
board.cache_hierarchy.ruby_system.RequestType.RMW_Read.miss_latency_hist_seqr |     1194525     99.99%     99.99% |          72      0.01%    100.00% |           3      0.00%    100.00% |           0      0.00%    100.00% |           1      0.00%    100.00% |           0      0.00%    100.00% |           1      0.00%    100.00% |           0      0.00%    100.00% |           0      0.00%    100.00% |           0      0.00%    100.00% (Unspecified)
board.cache_hierarchy.ruby_system.RequestType.RMW_Read.miss_latency_hist_seqr::total      1194602                       (Unspecified)
board.cache_hierarchy.ruby_system.RequestType.Locked_RMW_Read.latency_hist_seqr::bucket_size         2048                       (Unspecified)
board.cache_hierarchy.ruby_system.RequestType.Locked_RMW_Read.latency_hist_seqr::max_bucket        20479                       (Unspecified)
board.cache_hierarchy.ruby_system.RequestType.Locked_RMW_Read.latency_hist_seqr::samples      4903456                       (Unspecified)
board.cache_hierarchy.ruby_system.RequestType.Locked_RMW_Read.latency_hist_seqr::mean    25.617308                       (Unspecified)
board.cache_hierarchy.ruby_system.RequestType.Locked_RMW_Read.latency_hist_seqr::gmean     2.036707                       (Unspecified)
board.cache_hierarchy.ruby_system.RequestType.Locked_RMW_Read.latency_hist_seqr::stdev    87.936987                       (Unspecified)
board.cache_hierarchy.ruby_system.RequestType.Locked_RMW_Read.latency_hist_seqr |     4903419    100.00%    100.00% |          31      0.00%    100.00% |           3      0.00%    100.00% |           2      0.00%    100.00% |           0      0.00%    100.00% |           1      0.00%    100.00% |           0      0.00%    100.00% |           0      0.00%    100.00% |           0      0.00%    100.00% |           0      0.00%    100.00% (Unspecified)
board.cache_hierarchy.ruby_system.RequestType.Locked_RMW_Read.latency_hist_seqr::total      4903456                       (Unspecified)
board.cache_hierarchy.ruby_system.RequestType.Locked_RMW_Read.hit_latency_hist_seqr::bucket_size          512                       (Unspecified)
board.cache_hierarchy.ruby_system.RequestType.Locked_RMW_Read.hit_latency_hist_seqr::max_bucket         5119                       (Unspecified)
board.cache_hierarchy.ruby_system.RequestType.Locked_RMW_Read.hit_latency_hist_seqr::samples      4080629                       (Unspecified)
[...]
board.processor.cores9.core.fetch.nisnDist::stdev     2.451449                       # Number of instructions fetched each cycle (Total) (Count)
board.processor.cores9.core.fetch.nisnDist::underflows            0      0.00%      0.00% # Number of instructions fetched each cycle (Total) (Count)
board.processor.cores9.core.fetch.nisnDist::0   1318448419     83.52%     83.52% # Number of instructions fetched each cycle (Total) (Count)
board.processor.cores9.core.fetch.nisnDist::1     16848314      1.07%     84.58% # Number of instructions fetched each cycle (Total) (Count)
board.processor.cores9.core.fetch.nisnDist::2     13858387      0.88%     85.46% # Number of instructions fetched each cycle (Total) (Count)
board.processor.cores9.core.fetch.nisnDist::3     17133381      1.09%     86.55% # Number of instructions fetched each cycle (Total) (Count)
board.processor.cores9.core.fetch.nisnDist::4     30177949      1.91%     88.46% # Number of instructions fetched each cycle (Total) (Count)
board.processor.cores9.core.fetch.nisnDist::5     19434878      1.23%     89.69% # Number of instructions fetched each cycle (Total) (Count)
board.processor.cores9.core.fetch.nisnDist::6     12657303      0.80%     90.49% # Number of instructions fetched each cycle (Total) (Count)
board.processor.cores9.core.fetch.nisnDist::7     12924957      0.82%     91.31% # Number of instructions fetched each cycle (Total) (Count)
board.processor.cores9.core.fetch.nisnDist::8    137184498      8.69%    100.00% # Number of instructions fetched each cycle (Total) (Count)
board.processor.cores9.core.fetch.nisnDist::overflows            0      0.00%    100.00% # Number of instructions fetched each cycle (Total) (Count)
board.processor.cores9.core.fetch.nisnDist::min_value            0                       # Number of instructions fetched each cycle (Total) (Count)
board.processor.cores9.core.fetch.nisnDist::max_value            8                       # Number of instructions fetched each cycle (Total) (Count)
board.processor.cores9.core.fetch.nisnDist::total   1578668086                       # Number of instructions fetched each cycle (Total) (Count)
board.processor.cores9.core.fetch.branchRate     0.061568                       # Number of branch fetches per cycle (Ratio)
board.processor.cores9.core.fetch.rate       0.275861                       # Number of inst fetches per cycle ((Count/Cycle))
board.processor.cores9.core.iew.idleCycles            0                       # Number of cycles IEW is idle (Cycle)
board.processor.cores9.core.iew.squashCycles     12927956                       # Number of cycles IEW is squashing (Cycle)
board.processor.cores9.core.iew.blockCycles    167531397                       # Number of cycles IEW is blocking (Cycle)
board.processor.cores9.core.iew.unblockCycles     90159159                       # Number of cycles IEW is unblocking (Cycle)
board.processor.cores9.core.iew.dispatchedInsts   1351957754                       # Number of instructions dispatched to IQ (Count)
board.processor.cores9.core.iew.dispSquashedInsts      1303260                       # Number of squashed instructions skipped by dispatch (Count)
board.processor.cores9.core.iew.dispLoadInsts    180930504                       # Number of dispatched load instructions (Count)
board.processor.cores9.core.iew.dispStoreInsts    122313024                       # Number of dispatched store instructions (Count)
board.processor.cores9.core.iew.dispNonSpecInsts      2291417                       # Number of dispatched non-speculative instructions (Count)
board.processor.cores9.core.iew.iqFullEvents       940091                       # Number of times the IQ has become full, causing a stall (Count)
board.processor.cores9.core.iew.lsqFullEvents     88702476                       # Number of times the LSQ has become full, causing a stall (Count)
board.processor.cores9.core.iew.memOrderViolationEvents       526811                       # Number of memory order violations (Count)
board.processor.cores9.core.iew.predictedTakenIncorrect      2638999                       # Number of branches that were predicted taken incorrectly (Count)
board.processor.cores9.core.iew.predictedNotTakenIncorrect     10568700                       # Number of branches that were predicted not taken incorrectly (Count)
board.processor.cores9.core.iew.branchMispredicts     13207699                       # Number of branch mispredicts detected at execute (Count)
board.processor.cores9.core.iew.instsToCommit   1251437844                       # Cumulative count of insts sent to commit (Count)
board.processor.cores9.core.iew.writebackCount   1242522105                       # Cumulative count of insts written-back (Count)
board.processor.cores9.core.iew.producerInst    856217149                       # Number of instructions producing a value (Count)
board.processor.cores9.core.iew.consumerInst   1438117152                       # Number of instructions consuming a value (Count)
board.processor.cores9.core.iew.wbRate       0.439214                       # Insts written-back per cycle ((Count/Cycle))
board.processor.cores9.core.iew.wbFanout     0.595374                       # Average fanout of values written-back ((Count/Count))
board.processor.cores9.core.lsq0.forwLoads     25911322                       # Number of loads that had data forwarded from stores (Count)
board.processor.cores9.core.lsq0.squashedLoads     46710994                       # Number of loads squashed (Count)
board.processor.cores9.core.lsq0.ignoredResponses       143717                       # Number of memory responses ignored because the instruction is squashed (Count)
board.processor.cores9.core.lsq0.memOrderViolation       526811                       # Number of memory ordering violations (Count)
board.processor.cores9.core.lsq0.squashedStores     33673051                       # Number of stores squashed (Count)
board.processor.cores9.core.lsq0.rescheduledLoads       112503                       # Number of loads that were rescheduled (Count)
board.processor.cores9.core.lsq0.blockedByCache       182687                       # Number of times an access to memory failed due to the cache being blocked (Count)
board.processor.cores9.core.lsq0.loadToUse::samples    134026155                       # Distribution of cycle latency between the first time a load is issued and its completion (Unspecified)
board.processor.cores9.core.lsq0.loadToUse::mean    15.791577                       # Distribution of cycle latency between the first time a load is issued and its completion (Unspecified)
board.processor.cores9.core.lsq0.loadToUse::stdev    68.633229                       # Distribution of cycle latency between the first time a load is issued and its completion (Unspecified)
board.processor.cores9.core.lsq0.loadToUse::0-9    125260678     93.46%     93.46% # Distribution of cycle latency between the first time a load is issued and its completion (Unspecified)
board.processor.cores9.core.lsq0.loadToUse::10-19      1482422      1.11%     94.57% # Distribution of cycle latency between the first time a load is issued and its completion (Unspecified)
board.processor.cores9.core.lsq0.loadToUse::20-29       837433      0.62%     95.19% # Distribution of cycle latency between the first time a load is issued and its completion (Unspecified)
board.processor.cores9.core.lsq0.loadToUse::30-39       122725      0.09%     95.28% # Distribution of cycle latency between the first time a load is issued and its completion (Unspecified)
board.processor.cores9.core.lsq0.loadToUse::40-49        83996      0.06%     95.35% # Distribution of cycle latency between the first time a load is issued and its completion (Unspecified)
board.processor.cores9.core.lsq0.loadToUse::50-59       125301      0.09%     95.44% # Distribution of cycle latency between the first time a load is issued and its completion (Unspecified)
board.processor.cores9.core.lsq0.loadToUse::60-69        49051      0.04%     95.48% # Distribution of cycle latency between the first time a load is issued and its completion (Unspecified)
board.processor.cores9.core.lsq0.loadToUse::70-79        23127      0.02%     95.49% # Distribution of cycle latency between the first time a load is issued and its completion (Unspecified)
board.processor.cores9.core.lsq0.loadToUse::80-89        25633      0.02%     95.51% # Distribution of cycle latency between the first time a load is issued and its completion (Unspecified)
board.processor.cores9.core.lsq0.loadToUse::90-99        53429      0.04%     95.55% # Distribution of cycle latency between the first time a load is issued and its completion (Unspecified)
board.processor.cores9.core.lsq0.loadToUse::100-109        36368      0.03%     95.58% # Distribution of cycle latency between the first time a load is issued and its completion (Unspecified)
board.processor.cores9.core.lsq0.loadToUse::110-119        36627      0.03%     95.61% # Distribution of cycle latency between the first time a load is issued and its completion (Unspecified)
board.processor.cores9.core.lsq0.loadToUse::120-129        42165      0.03%     95.64% # Distribution of cycle latency between the first time a load is issued and its completion (Unspecified)
board.processor.cores9.core.lsq0.loadToUse::130-139       117296      0.09%     95.72% # Distribution of cycle latency between the first time a load is issued and its completion (Unspecified)
board.processor.cores9.core.lsq0.loadToUse::140-149       613809      0.46%     96.18% # Distribution of cycle latency between the first time a load is issued and its completion (Unspecified)
board.processor.cores9.core.lsq0.loadToUse::150-159       233669      0.17%     96.36% # Distribution of cycle latency between the first time a load is issued and its completion (Unspecified)
board.processor.cores9.core.lsq0.loadToUse::160-169       178910      0.13%     96.49% # Distribution of cycle latency between the first time a load is issued and its completion (Unspecified)
board.processor.cores9.core.lsq0.loadToUse::170-179        95140      0.07%     96.56% # Distribution of cycle latency between the first time a load is issued and its completion (Unspecified)
board.processor.cores9.core.lsq0.loadToUse::180-189       219958      0.16%     96.73% # Distribution of cycle latency between the first time a load is issued and its completion (Unspecified)
board.processor.cores9.core.lsq0.loadToUse::190-199       143818      0.11%     96.83% # Distribution of cycle latency between the first time a load is issued and its completion (Unspecified)
board.processor.cores9.core.lsq0.loadToUse::200-209       123846      0.09%     96.93% # Distribution of cycle latency between the first time a load is issued and its completion (Unspecified)
board.processor.cores9.core.lsq0.loadToUse::210-219       137510      0.10%     97.03% # Distribution of cycle latency between the first time a load is issued and its completion (Unspecified)
board.processor.cores9.core.lsq0.loadToUse::220-229       683152      0.51%     97.54% # Distribution of cycle latency between the first time a load is issued and its completion (Unspecified)
board.processor.cores9.core.lsq0.loadToUse::230-239       567503      0.42%     97.96% # Distribution of cycle latency between the first time a load is issued and its completion (Unspecified)
board.processor.cores9.core.lsq0.loadToUse::240-249       356441      0.27%     98.23% # Distribution of cycle latency between the first time a load is issued and its completion (Unspecified)
board.processor.cores9.core.lsq0.loadToUse::250-259       228441      0.17%     98.40% # Distribution of cycle latency between the first time a load is issued and its completion (Unspecified)
board.processor.cores9.core.lsq0.loadToUse::260-269       172035      0.13%     98.53% # Distribution of cycle latency between the first time a load is issued and its completion (Unspecified)
board.processor.cores9.core.lsq0.loadToUse::270-279       143949      0.11%     98.63% # Distribution of cycle latency between the first time a load is issued and its completion (Unspecified)
board.processor.cores9.core.lsq0.loadToUse::280-289       129978      0.10%     98.73% # Distribution of cycle latency between the first time a load is issued and its completion (Unspecified)
board.processor.cores9.core.lsq0.loadToUse::290-299       119600      0.09%     98.82% # Distribution of cycle latency between the first time a load is issued and its completion (Unspecified)
board.processor.cores9.core.lsq0.loadToUse::overflows      1582145      1.18%    100.00% # Distribution of cycle latency between the first time a load is issued and its completion (Unspecified)
board.processor.cores9.core.lsq0.loadToUse::min_value            2                       # Distribution of cycle latency between the first time a load is issued and its completion (Unspecified)
board.processor.cores9.core.lsq0.loadToUse::max_value        12606                       # Distribution of cycle latency between the first time a load is issued and its completion (Unspecified)
board.processor.cores9.core.lsq0.loadToUse::total    134026155                       # Distribution of cycle latency between the first time a load is issued and its completion (Unspecified)
board.processor.cores9.core.mmu.dtb.rdAccesses    170014309                       # TLB accesses on read requests (Count)
board.processor.cores9.core.mmu.dtb.wrAccesses    111502742                       # TLB accesses on write requests (Count)
board.processor.cores9.core.mmu.dtb.rdMisses      3409837                       # TLB misses on read requests (Count)
board.processor.cores9.core.mmu.dtb.wrMisses      1294272                       # TLB misses on write requests (Count)
board.processor.cores9.core.mmu.dtb.walker.power_state.pwrStateResidencyTicks::UNDEFINED 27397707488380                       # Cumulative time (in ticks) in various power states (Tick)
board.processor.cores9.core.mmu.itb.rdAccesses            0                       # TLB accesses on read requests (Count)
board.processor.cores9.core.mmu.itb.wrAccesses    108190824                       # TLB accesses on write requests (Count)
board.processor.cores9.core.mmu.itb.rdMisses            0                       # TLB misses on read requests (Count)
board.processor.cores9.core.mmu.itb.wrMisses      3481051                       # TLB misses on write requests (Count)
board.processor.cores9.core.mmu.itb.walker.power_state.pwrStateResidencyTicks::UNDEFINED 27397707488380                       # Cumulative time (in ticks) in various power states (Tick)
board.processor.cores9.core.power_state.numTransitions        14949                       # Number of power state transitions (Count)
board.processor.cores9.core.power_state.ticksClkGated::samples         7475                       # Distribution of time spent in the clock gated state (Tick)
board.processor.cores9.core.power_state.ticksClkGated::mean 288109765.734716                       # Distribution of time spent in the clock gated state (Tick)
board.processor.cores9.core.power_state.ticksClkGated::stdev 302936699.884749                       # Distribution of time spent in the clock gated state (Tick)
board.processor.cores9.core.power_state.ticksClkGated::1000-5e+10         7475    100.00%    100.00% # Distribution of time spent in the clock gated state (Tick)
board.processor.cores9.core.power_state.ticksClkGated::min_value        97236                       # Distribution of time spent in the clock gated state (Tick)
board.processor.cores9.core.power_state.ticksClkGated::max_value    999232434                       # Distribution of time spent in the clock gated state (Tick)
board.processor.cores9.core.power_state.ticksClkGated::total         7475                       # Distribution of time spent in the clock gated state (Tick)
board.processor.cores9.core.power_state.pwrStateResidencyTicks::ON 942046401468                       # Cumulative time (in ticks) in various power states (Tick)
board.processor.cores9.core.power_state.pwrStateResidencyTicks::CLK_GATED 2153620498867                       # Cumulative time (in ticks) in various power states (Tick)
board.processor.cores9.core.rename.squashCycles     12927956                       # Number of cycles rename is squashing (Cycle)
board.processor.cores9.core.rename.idleCycles    570907117                       # Number of cycles rename is idle (Cycle)
board.processor.cores9.core.rename.blockCycles    377789897                       # Number of cycles rename is blocking (Cycle)
board.processor.cores9.core.rename.serializeStallCycles    139931248                       # count of cycles rename stalled for serializing inst (Cycle)
board.processor.cores9.core.rename.runCycles    209905557                       # Number of cycles rename is running (Cycle)
board.processor.cores9.core.rename.unblockCycles    267206311                       # Number of cycles rename is unblocking (Cycle)
board.processor.cores9.core.rename.renamedInsts   1392291622                       # Number of instructions processed by rename (Count)
board.processor.cores9.core.rename.ROBFullEvents      6634411                       # Number of times rename has blocked due to ROB full (Count)
board.processor.cores9.core.rename.IQFullEvents     35628584                       # Number of times rename has blocked due to IQ full (Count)
board.processor.cores9.core.rename.LQFullEvents     19793870                       # Number of times rename has blocked due to LQ full (Count)
board.processor.cores9.core.rename.SQFullEvents    206548549                       # Number of times rename has blocked due to SQ full (Count)
board.processor.cores9.core.rename.fullRegistersEvents          624                       # Number of times there has been no free registers (Count)
board.processor.cores9.core.rename.renamedOperands   1502909376                       # Number of destination operands rename has renamed (Count)
board.processor.cores9.core.rename.lookups   3459939151                       # Number of register rename lookups that rename has made (Count)
board.processor.cores9.core.rename.intLookups   2107740107                       # Number of integer rename lookups (Count)
board.processor.cores9.core.rename.fpLookups     72281287                       # Number of floating rename lookups (Count)
board.processor.cores9.core.rename.committedMaps   1152467282                       # Number of HB maps that are committed (Count)
board.processor.cores9.core.rename.undoneMaps    350442094                       # Number of HB maps that are undone due to squashing (Count)
board.processor.cores9.core.rename.serializing      1646005                       # count of serializing insts renamed (Count)
board.processor.cores9.core.rename.tempSerializing      1633292                       # count of temporary serializing insts renamed (Count)
board.processor.cores9.core.rename.skidInsts    141980806                       # count of insts added to the skid buffer (Count)
board.processor.cores9.core.rob.reads      2816651735                       # The number of ROB reads (Count)
board.processor.cores9.core.rob.writes     2739221525                       # The number of ROB writes (Count)
board.processor.cores9.core.thread_0.numInsts    521206008                       # Number of Instructions committed (Count)
board.processor.cores9.core.thread_0.numOps   1044321887                       # Number of Ops committed (Count)
board.processor.cores9.core.thread_0.numMemRefs            0                       # Number of Memory References (Count)
board.workload.inst.arm                             0                       # number of arm instructions executed (Count)
board.workload.inst.quiesce                         0                       # number of quiesce instructions executed (Count)

---------- End Simulation Statistics   ----------
