
---------- Begin Simulation Statistics ----------
simSeconds                                   5.281987                       # Number of seconds simulated (Second)
simTicks                                 5281987112946                       # Number of ticks simulated (Tick)
finalTick                                32030352698887                       # Number of ticks from beginning of simulation (restored from checkpoints and never reset) (Tick)
simFreq                                  1000000000000                       # The number of ticks per simulated second ((Tick/Second))
hostSeconds                                  46902.23                       # Real time elapsed on the host (Second)
hostTickRate                                112616963                       # The number of ticks simulated per host second (ticks/s) ((Tick/Second))
hostMemory                                    4740044                       # Number of bytes of host memory used (Byte)
simInsts                                   8367380436                       # Number of instructions simulated (Count)
simOps                                    12490844835                       # Number of ops (including micro ops) simulated (Count)
hostInstRate                                   178400                       # Simulator instruction rate (inst/s) ((Count/Second))
hostOpRate                                     266317                       # Simulator op (including micro ops) rate (op/s) ((Count/Second))
board.cache_hierarchy.ruby_system.delayHistogram::bucket_size          128                       # delay histogram for all message (Unspecified)
board.cache_hierarchy.ruby_system.delayHistogram::max_bucket         1279                       # delay histogram for all message (Unspecified)
board.cache_hierarchy.ruby_system.delayHistogram::samples    887052686                       # delay histogram for all message (Unspecified)
board.cache_hierarchy.ruby_system.delayHistogram::mean     0.379626                       # delay histogram for all message (Unspecified)
board.cache_hierarchy.ruby_system.delayHistogram::stdev     1.795826                       # delay histogram for all message (Unspecified)
board.cache_hierarchy.ruby_system.delayHistogram |   887052555    100.00%    100.00% |         126      0.00%    100.00% |           0      0.00%    100.00% |           2      0.00%    100.00% |           2      0.00%    100.00% |           0      0.00%    100.00% |           0      0.00%    100.00% |           0      0.00%    100.00% |           0      0.00%    100.00% |           1      0.00%    100.00% # delay histogram for all message (Unspecified)
board.cache_hierarchy.ruby_system.delayHistogram::total    887052686                       # delay histogram for all message (Unspecified)
board.cache_hierarchy.ruby_system.m_outstandReqHistSeqr::bucket_size            2                       (Unspecified)
board.cache_hierarchy.ruby_system.m_outstandReqHistSeqr::max_bucket           19                       (Unspecified)
board.cache_hierarchy.ruby_system.m_outstandReqHistSeqr::samples   2705710400                       (Unspecified)
board.cache_hierarchy.ruby_system.m_outstandReqHistSeqr::mean     2.035933                       (Unspecified)
board.cache_hierarchy.ruby_system.m_outstandReqHistSeqr::gmean     1.710032                       (Unspecified)
board.cache_hierarchy.ruby_system.m_outstandReqHistSeqr::stdev     1.506404                       (Unspecified)
board.cache_hierarchy.ruby_system.m_outstandReqHistSeqr |  1197241711     44.25%     44.25% |  1232161889     45.54%     89.79% |   208950914      7.72%     97.51% |    37422427      1.38%     98.89% |    12223331      0.45%     99.35% |     5570938      0.21%     99.55% |     5119073      0.19%     99.74% |     4168516      0.15%     99.89% |     2851601      0.11%    100.00% |           0      0.00%    100.00% (Unspecified)
board.cache_hierarchy.ruby_system.m_outstandReqHistSeqr::total   2705710400                       (Unspecified)
board.cache_hierarchy.ruby_system.m_latencyHistSeqr::bucket_size          512                       (Unspecified)
board.cache_hierarchy.ruby_system.m_latencyHistSeqr::max_bucket         5119                       (Unspecified)
board.cache_hierarchy.ruby_system.m_latencyHistSeqr::samples   2718858810                       (Unspecified)
board.cache_hierarchy.ruby_system.m_latencyHistSeqr::mean     8.636735                       (Unspecified)
board.cache_hierarchy.ruby_system.m_latencyHistSeqr::gmean     1.312418                       (Unspecified)
board.cache_hierarchy.ruby_system.m_latencyHistSeqr::stdev    41.041401                       (Unspecified)
board.cache_hierarchy.ruby_system.m_latencyHistSeqr |  2717086652     99.93%     99.93% |     1683238      0.06%    100.00% |       82918      0.00%    100.00% |        4898      0.00%    100.00% |         903      0.00%    100.00% |         172      0.00%    100.00% |          26      0.00%    100.00% |           2      0.00%    100.00% |           1      0.00%    100.00% |           0      0.00%    100.00% (Unspecified)
board.cache_hierarchy.ruby_system.m_latencyHistSeqr::total   2718858810                       (Unspecified)
board.cache_hierarchy.ruby_system.m_hitLatencyHistSeqr::bucket_size          256                       (Unspecified)
board.cache_hierarchy.ruby_system.m_hitLatencyHistSeqr::max_bucket         2559                       (Unspecified)
board.cache_hierarchy.ruby_system.m_hitLatencyHistSeqr::samples   2543962116                       (Unspecified)
board.cache_hierarchy.ruby_system.m_hitLatencyHistSeqr::mean     1.028515                       (Unspecified)
board.cache_hierarchy.ruby_system.m_hitLatencyHistSeqr::gmean     1.004863                       (Unspecified)
board.cache_hierarchy.ruby_system.m_hitLatencyHistSeqr::stdev     2.245536                       (Unspecified)
board.cache_hierarchy.ruby_system.m_hitLatencyHistSeqr |  2543947264    100.00%    100.00% |        9387      0.00%    100.00% |        2510      0.00%    100.00% |        2781      0.00%    100.00% |         112      0.00%    100.00% |          54      0.00%    100.00% |           6      0.00%    100.00% |           1      0.00%    100.00% |           1      0.00%    100.00% |           0      0.00%    100.00% (Unspecified)
board.cache_hierarchy.ruby_system.m_hitLatencyHistSeqr::total   2543962116                       (Unspecified)
board.cache_hierarchy.ruby_system.m_missLatencyHistSeqr::bucket_size          512                       (Unspecified)
board.cache_hierarchy.ruby_system.m_missLatencyHistSeqr::max_bucket         5119                       (Unspecified)
board.cache_hierarchy.ruby_system.m_missLatencyHistSeqr::samples    174896694                       (Unspecified)
board.cache_hierarchy.ruby_system.m_missLatencyHistSeqr::mean   119.302187                       (Unspecified)
board.cache_hierarchy.ruby_system.m_missLatencyHistSeqr::gmean    63.803419                       (Unspecified)
board.cache_hierarchy.ruby_system.m_missLatencyHistSeqr::stdev   114.116847                       (Unspecified)
board.cache_hierarchy.ruby_system.m_missLatencyHistSeqr |   173130001     98.99%     98.99% |     1677947      0.96%     99.95% |       82752      0.05%    100.00% |        4891      0.00%    100.00% |         902      0.00%    100.00% |         172      0.00%    100.00% |          26      0.00%    100.00% |           2      0.00%    100.00% |           1      0.00%    100.00% |           0      0.00%    100.00% (Unspecified)
board.cache_hierarchy.ruby_system.m_missLatencyHistSeqr::total    174896694                       (Unspecified)
board.cache_hierarchy.ruby_system.delayVCHist.vnet_0::bucket_size          128                       # delay histogram for vnet_0 (Unspecified)
board.cache_hierarchy.ruby_system.delayVCHist.vnet_0::max_bucket         1279                       # delay histogram for vnet_0 (Unspecified)
board.cache_hierarchy.ruby_system.delayVCHist.vnet_0::samples    308416198                       # delay histogram for vnet_0 (Unspecified)
board.cache_hierarchy.ruby_system.delayVCHist.vnet_0::mean     0.860575                       # delay histogram for vnet_0 (Unspecified)
board.cache_hierarchy.ruby_system.delayVCHist.vnet_0::stdev     2.670824                       # delay histogram for vnet_0 (Unspecified)
board.cache_hierarchy.ruby_system.delayVCHist.vnet_0 |   308416164    100.00%    100.00% |          29      0.00%    100.00% |           0      0.00%    100.00% |           2      0.00%    100.00% |           2      0.00%    100.00% |           0      0.00%    100.00% |           0      0.00%    100.00% |           0      0.00%    100.00% |           0      0.00%    100.00% |           1      0.00%    100.00% # delay histogram for vnet_0 (Unspecified)
board.cache_hierarchy.ruby_system.delayVCHist.vnet_0::total    308416198                       # delay histogram for vnet_0 (Unspecified)
board.cache_hierarchy.ruby_system.delayVCHist.vnet_1::bucket_size           32                       # delay histogram for vnet_1 (Unspecified)
board.cache_hierarchy.ruby_system.delayVCHist.vnet_1::max_bucket          319                       # delay histogram for vnet_1 (Unspecified)
board.cache_hierarchy.ruby_system.delayVCHist.vnet_1::samples    514802784                       # delay histogram for vnet_1 (Unspecified)
board.cache_hierarchy.ruby_system.delayVCHist.vnet_1::mean     0.138513                       # delay histogram for vnet_1 (Unspecified)
board.cache_hierarchy.ruby_system.delayVCHist.vnet_1::stdev     1.033819                       # delay histogram for vnet_1 (Unspecified)
board.cache_hierarchy.ruby_system.delayVCHist.vnet_1 |   514789471    100.00%    100.00% |       12137      0.00%    100.00% |         780      0.00%    100.00% |         299      0.00%    100.00% |          90      0.00%    100.00% |           7      0.00%    100.00% |           0      0.00%    100.00% |           0      0.00%    100.00% |           0      0.00%    100.00% |           0      0.00%    100.00% # delay histogram for vnet_1 (Unspecified)
board.cache_hierarchy.ruby_system.delayVCHist.vnet_1::total    514802784                       # delay histogram for vnet_1 (Unspecified)
board.cache_hierarchy.ruby_system.delayVCHist.vnet_2::bucket_size            1                       # delay histogram for vnet_2 (Unspecified)
board.cache_hierarchy.ruby_system.delayVCHist.vnet_2::max_bucket            9                       # delay histogram for vnet_2 (Unspecified)
board.cache_hierarchy.ruby_system.delayVCHist.vnet_2::samples     63833704                       # delay histogram for vnet_2 (Unspecified)
board.cache_hierarchy.ruby_system.delayVCHist.vnet_2::mean     0.000413                       # delay histogram for vnet_2 (Unspecified)
board.cache_hierarchy.ruby_system.delayVCHist.vnet_2::stdev     0.028741                       # delay histogram for vnet_2 (Unspecified)
board.cache_hierarchy.ruby_system.delayVCHist.vnet_2 |    63820519     99.98%     99.98% |           0      0.00%     99.98% |       13185      0.02%    100.00% |           0      0.00%    100.00% |           0      0.00%    100.00% |           0      0.00%    100.00% |           0      0.00%    100.00% |           0      0.00%    100.00% |           0      0.00%    100.00% |           0      0.00%    100.00% # delay histogram for vnet_2 (Unspecified)
board.cache_hierarchy.ruby_system.delayVCHist.vnet_2::total     63833704                       # delay histogram for vnet_2 (Unspecified)
board.cache_hierarchy.ruby_system.Directory_Controller.Fetch    104978923      0.00%      0.00% (Unspecified)
board.cache_hierarchy.ruby_system.Directory_Controller.Data     18026348      0.00%      0.00% (Unspecified)
board.cache_hierarchy.ruby_system.Directory_Controller.Memory_Data    105267646      0.00%      0.00% (Unspecified)
board.cache_hierarchy.ruby_system.Directory_Controller.Memory_Ack     18886700      0.00%      0.00% (Unspecified)
board.cache_hierarchy.ruby_system.Directory_Controller.DMA_READ       422250      0.00%      0.00% (Unspecified)
board.cache_hierarchy.ruby_system.Directory_Controller.DMA_WRITE       860352      0.00%      0.00% (Unspecified)
board.cache_hierarchy.ruby_system.Directory_Controller.CleanReplacement     86948479      0.00%      0.00% (Unspecified)
board.cache_hierarchy.ruby_system.Directory_Controller.I.Fetch    104978923      0.00%      0.00% (Unspecified)
board.cache_hierarchy.ruby_system.Directory_Controller.I.DMA_READ       288725      0.00%      0.00% (Unspecified)
board.cache_hierarchy.ruby_system.Directory_Controller.I.DMA_WRITE       860352      0.00%      0.00% (Unspecified)
board.cache_hierarchy.ruby_system.Directory_Controller.ID.Memory_Data       288725      0.00%      0.00% (Unspecified)
board.cache_hierarchy.ruby_system.Directory_Controller.ID_W.Memory_Ack       860352      0.00%      0.00% (Unspecified)
board.cache_hierarchy.ruby_system.Directory_Controller.M.Data     17892840      0.00%      0.00% (Unspecified)
board.cache_hierarchy.ruby_system.Directory_Controller.M.DMA_READ       133508      0.00%      0.00% (Unspecified)
board.cache_hierarchy.ruby_system.Directory_Controller.M.CleanReplacement     86948479      0.00%      0.00% (Unspecified)
board.cache_hierarchy.ruby_system.Directory_Controller.IM.Memory_Data    104978921      0.00%      0.00% (Unspecified)
board.cache_hierarchy.ruby_system.Directory_Controller.MI.Memory_Ack     17892840      0.00%      0.00% (Unspecified)
board.cache_hierarchy.ruby_system.Directory_Controller.MI.DMA_READ           17      0.00%      0.00% (Unspecified)
board.cache_hierarchy.ruby_system.Directory_Controller.M_DRD.Data       133508      0.00%      0.00% (Unspecified)
board.cache_hierarchy.ruby_system.Directory_Controller.M_DRDI.Memory_Ack       133508      0.00%      0.00% (Unspecified)
board.cache_hierarchy.ruby_system.DMA_Controller.ReadRequest |      422233    100.00%    100.00% |           0      0.00%    100.00% (Unspecified)
board.cache_hierarchy.ruby_system.DMA_Controller.ReadRequest::total       422233                       (Unspecified)
board.cache_hierarchy.ruby_system.DMA_Controller.WriteRequest |      860352    100.00%    100.00% |           0      0.00%    100.00% (Unspecified)
board.cache_hierarchy.ruby_system.DMA_Controller.WriteRequest::total       860352                       (Unspecified)
board.cache_hierarchy.ruby_system.DMA_Controller.Data |      422233    100.00%    100.00% |           0      0.00%    100.00% (Unspecified)
board.cache_hierarchy.ruby_system.DMA_Controller.Data::total       422233                       (Unspecified)
board.cache_hierarchy.ruby_system.DMA_Controller.Ack |      860352    100.00%    100.00% |           0      0.00%    100.00% (Unspecified)
board.cache_hierarchy.ruby_system.DMA_Controller.Ack::total       860352                       (Unspecified)
board.cache_hierarchy.ruby_system.DMA_Controller.READY.ReadRequest |      422233    100.00%    100.00% |           0      0.00%    100.00% (Unspecified)
board.cache_hierarchy.ruby_system.DMA_Controller.READY.ReadRequest::total       422233                       (Unspecified)
board.cache_hierarchy.ruby_system.DMA_Controller.READY.WriteRequest |      860352    100.00%    100.00% |           0      0.00%    100.00% (Unspecified)
board.cache_hierarchy.ruby_system.DMA_Controller.READY.WriteRequest::total       860352                       (Unspecified)
board.cache_hierarchy.ruby_system.DMA_Controller.BUSY_RD.Data |      422233    100.00%    100.00% |           0      0.00%    100.00% (Unspecified)
board.cache_hierarchy.ruby_system.DMA_Controller.BUSY_RD.Data::total       422233                       (Unspecified)
board.cache_hierarchy.ruby_system.DMA_Controller.BUSY_WR.Ack |      860352    100.00%    100.00% |           0      0.00%    100.00% (Unspecified)
board.cache_hierarchy.ruby_system.DMA_Controller.BUSY_WR.Ack::total       860352                       (Unspecified)
board.cache_hierarchy.ruby_system.L1Cache_Controller.Load   1156348519      0.00%      0.00% (Unspecified)
board.cache_hierarchy.ruby_system.L1Cache_Controller.Ifetch    839934798      0.00%      0.00% (Unspecified)
board.cache_hierarchy.ruby_system.L1Cache_Controller.Store    723155840      0.00%      0.00% (Unspecified)
board.cache_hierarchy.ruby_system.L1Cache_Controller.Inv     63833704      0.00%      0.00% (Unspecified)
board.cache_hierarchy.ruby_system.L1Cache_Controller.L1_Replacement    174163761      0.00%      0.00% (Unspecified)
board.cache_hierarchy.ruby_system.L1Cache_Controller.Data_Exclusive     51248305      0.00%      0.00% (Unspecified)
board.cache_hierarchy.ruby_system.L1Cache_Controller.Data_all_Acks    123661365      0.00%      0.00% (Unspecified)
board.cache_hierarchy.ruby_system.L1Cache_Controller.Ack_all          219      0.00%      0.00% (Unspecified)
board.cache_hierarchy.ruby_system.L1Cache_Controller.WB_Ack     65971935      0.00%      0.00% (Unspecified)
board.cache_hierarchy.ruby_system.L1Cache_Controller.NP.Load     50856878      0.00%      0.00% (Unspecified)
board.cache_hierarchy.ruby_system.L1Cache_Controller.NP.Ifetch    107084780      0.00%      0.00% (Unspecified)
board.cache_hierarchy.ruby_system.L1Cache_Controller.NP.Store     16222297      0.00%      0.00% (Unspecified)
board.cache_hierarchy.ruby_system.L1Cache_Controller.NP.Inv     61749189      0.00%      0.00% (Unspecified)
board.cache_hierarchy.ruby_system.L1Cache_Controller.I.Load       421389      0.00%      0.00% (Unspecified)
board.cache_hierarchy.ruby_system.L1Cache_Controller.I.Ifetch       260777      0.00%      0.00% (Unspecified)
board.cache_hierarchy.ruby_system.L1Cache_Controller.I.Store        63551      0.00%      0.00% (Unspecified)
board.cache_hierarchy.ruby_system.L1Cache_Controller.I.L1_Replacement      1338099      0.00%      0.00% (Unspecified)
board.cache_hierarchy.ruby_system.L1Cache_Controller.S.Load        51718      0.00%      0.00% (Unspecified)
board.cache_hierarchy.ruby_system.L1Cache_Controller.S.Ifetch    732586002      0.00%      0.00% (Unspecified)
board.cache_hierarchy.ruby_system.L1Cache_Controller.S.Store          219      0.00%      0.00% (Unspecified)
board.cache_hierarchy.ruby_system.L1Cache_Controller.S.Inv       520495      0.00%      0.00% (Unspecified)
board.cache_hierarchy.ruby_system.L1Cache_Controller.S.L1_Replacement    106852897      0.00%      0.00% (Unspecified)
board.cache_hierarchy.ruby_system.L1Cache_Controller.E.Load    503593015      0.00%      0.00% (Unspecified)
board.cache_hierarchy.ruby_system.L1Cache_Controller.E.Store      8041090      0.00%      0.00% (Unspecified)
board.cache_hierarchy.ruby_system.L1Cache_Controller.E.Inv       881495      0.00%      0.00% (Unspecified)
board.cache_hierarchy.ruby_system.L1Cache_Controller.E.L1_Replacement     42325356      0.00%      0.00% (Unspecified)
board.cache_hierarchy.ruby_system.L1Cache_Controller.M.Load    601416900      0.00%      0.00% (Unspecified)
board.cache_hierarchy.ruby_system.L1Cache_Controller.M.Store    698827540      0.00%      0.00% (Unspecified)
board.cache_hierarchy.ruby_system.L1Cache_Controller.M.Inv       680431      0.00%      0.00% (Unspecified)
board.cache_hierarchy.ruby_system.L1Cache_Controller.M.L1_Replacement     23646579      0.00%      0.00% (Unspecified)
board.cache_hierarchy.ruby_system.L1Cache_Controller.IS.Inv         1415      0.00%      0.00% (Unspecified)
board.cache_hierarchy.ruby_system.L1Cache_Controller.IS.L1_Replacement          727      0.00%      0.00% (Unspecified)
board.cache_hierarchy.ruby_system.L1Cache_Controller.IS.Data_Exclusive     51248305      0.00%      0.00% (Unspecified)
board.cache_hierarchy.ruby_system.L1Cache_Controller.IS.Data_all_Acks    107374102      0.00%      0.00% (Unspecified)
board.cache_hierarchy.ruby_system.L1Cache_Controller.IM.L1_Replacement          103      0.00%      0.00% (Unspecified)
board.cache_hierarchy.ruby_system.L1Cache_Controller.IM.Data_all_Acks     16285848      0.00%      0.00% (Unspecified)
board.cache_hierarchy.ruby_system.L1Cache_Controller.SM.Ack_all          219      0.00%      0.00% (Unspecified)
board.cache_hierarchy.ruby_system.L1Cache_Controller.IS_I.Data_all_Acks         1415      0.00%      0.00% (Unspecified)
board.cache_hierarchy.ruby_system.L1Cache_Controller.M_I.Load         8619      0.00%      0.00% (Unspecified)
board.cache_hierarchy.ruby_system.L1Cache_Controller.M_I.Ifetch         3239      0.00%      0.00% (Unspecified)
board.cache_hierarchy.ruby_system.L1Cache_Controller.M_I.Store         1143      0.00%      0.00% (Unspecified)
board.cache_hierarchy.ruby_system.L1Cache_Controller.M_I.Inv          679      0.00%      0.00% (Unspecified)
board.cache_hierarchy.ruby_system.L1Cache_Controller.M_I.WB_Ack     65971256      0.00%      0.00% (Unspecified)
board.cache_hierarchy.ruby_system.L1Cache_Controller.SINK_WB_ACK.WB_Ack          679      0.00%      0.00% (Unspecified)
board.cache_hierarchy.ruby_system.L2Cache_Controller.L1_GET_INSTR    107348621      0.00%      0.00% (Unspecified)
board.cache_hierarchy.ruby_system.L2Cache_Controller.L1_GETS     51283320      0.00%      0.00% (Unspecified)
board.cache_hierarchy.ruby_system.L2Cache_Controller.L1_GETX     16287263      0.00%      0.00% (Unspecified)
board.cache_hierarchy.ruby_system.L2Cache_Controller.L1_UPGRADE          219      0.00%      0.00% (Unspecified)
board.cache_hierarchy.ruby_system.L2Cache_Controller.L1_PUTX     65971256      0.00%      0.00% (Unspecified)
board.cache_hierarchy.ruby_system.L2Cache_Controller.L1_PUTX_old         1355      0.00%      0.00% (Unspecified)
board.cache_hierarchy.ruby_system.L2Cache_Controller.L2_Replacement     17421826      0.00%      0.00% (Unspecified)
board.cache_hierarchy.ruby_system.L2Cache_Controller.L2_Replacement_clean     87419496      0.00%      0.00% (Unspecified)
board.cache_hierarchy.ruby_system.L2Cache_Controller.Mem_Data    104978921      0.00%      0.00% (Unspecified)
board.cache_hierarchy.ruby_system.L2Cache_Controller.Mem_Ack    104974827      0.00%      0.00% (Unspecified)
board.cache_hierarchy.ruby_system.L2Cache_Controller.WB_Data       680710      0.00%      0.00% (Unspecified)
board.cache_hierarchy.ruby_system.L2Cache_Controller.WB_Data_clean          400      0.00%      0.00% (Unspecified)
board.cache_hierarchy.ruby_system.L2Cache_Controller.Ack_all     63152594      0.00%      0.00% (Unspecified)
board.cache_hierarchy.ruby_system.L2Cache_Controller.Exclusive_Unblock     67534372      0.00%      0.00% (Unspecified)
board.cache_hierarchy.ruby_system.L2Cache_Controller.MEM_Inv       267013      0.00%      0.00% (Unspecified)
board.cache_hierarchy.ruby_system.L2Cache_Controller.NP.L1_GET_INSTR     62267720      0.00%      0.00% (Unspecified)
board.cache_hierarchy.ruby_system.L2Cache_Controller.NP.L1_GETS     30163545      0.00%      0.00% (Unspecified)
board.cache_hierarchy.ruby_system.L2Cache_Controller.NP.L1_GETX     12547658      0.00%      0.00% (Unspecified)
board.cache_hierarchy.ruby_system.L2Cache_Controller.NP.L1_PUTX_old          676      0.00%      0.00% (Unspecified)
board.cache_hierarchy.ruby_system.L2Cache_Controller.SS.L1_GET_INSTR     45073201      0.00%      0.00% (Unspecified)
board.cache_hierarchy.ruby_system.L2Cache_Controller.SS.L1_GETS        29962      0.00%      0.00% (Unspecified)
board.cache_hierarchy.ruby_system.L2Cache_Controller.SS.L1_GETX           38      0.00%      0.00% (Unspecified)
board.cache_hierarchy.ruby_system.L2Cache_Controller.SS.L1_UPGRADE          219      0.00%      0.00% (Unspecified)
board.cache_hierarchy.ruby_system.L2Cache_Controller.SS.L2_Replacement          802      0.00%      0.00% (Unspecified)
board.cache_hierarchy.ruby_system.L2Cache_Controller.SS.L2_Replacement_clean     62270297      0.00%      0.00% (Unspecified)
board.cache_hierarchy.ruby_system.L2Cache_Controller.M.L1_GET_INSTR         4636      0.00%      0.00% (Unspecified)
board.cache_hierarchy.ruby_system.L2Cache_Controller.M.L1_GETS     21084760      0.00%      0.00% (Unspecified)
board.cache_hierarchy.ruby_system.L2Cache_Controller.M.L1_GETX      3738152      0.00%      0.00% (Unspecified)
board.cache_hierarchy.ruby_system.L2Cache_Controller.M.L2_Replacement     17194894      0.00%      0.00% (Unspecified)
board.cache_hierarchy.ruby_system.L2Cache_Controller.M.L2_Replacement_clean     23823970      0.00%      0.00% (Unspecified)
board.cache_hierarchy.ruby_system.L2Cache_Controller.M.MEM_Inv       122259      0.00%      0.00% (Unspecified)
board.cache_hierarchy.ruby_system.L2Cache_Controller.MT.L1_PUTX     65971256      0.00%      0.00% (Unspecified)
board.cache_hierarchy.ruby_system.L2Cache_Controller.MT.L2_Replacement       226130      0.00%      0.00% (Unspecified)
board.cache_hierarchy.ruby_system.L2Cache_Controller.MT.L2_Replacement_clean      1325229      0.00%      0.00% (Unspecified)
board.cache_hierarchy.ruby_system.L2Cache_Controller.MT.MEM_Inv        11246      0.00%      0.00% (Unspecified)
board.cache_hierarchy.ruby_system.L2Cache_Controller.M_I.L1_GET_INSTR         1655      0.00%      0.00% (Unspecified)
board.cache_hierarchy.ruby_system.L2Cache_Controller.M_I.L1_GETS         5053      0.00%      0.00% (Unspecified)
board.cache_hierarchy.ruby_system.L2Cache_Controller.M_I.L1_GETX         1415      0.00%      0.00% (Unspecified)
board.cache_hierarchy.ruby_system.L2Cache_Controller.M_I.L1_PUTX_old            3      0.00%      0.00% (Unspecified)
board.cache_hierarchy.ruby_system.L2Cache_Controller.M_I.Mem_Ack    104974827      0.00%      0.00% (Unspecified)
board.cache_hierarchy.ruby_system.L2Cache_Controller.M_I.MEM_Inv       122262      0.00%      0.00% (Unspecified)
board.cache_hierarchy.ruby_system.L2Cache_Controller.MT_I.L1_PUTX_old           93      0.00%      0.00% (Unspecified)
board.cache_hierarchy.ruby_system.L2Cache_Controller.MT_I.WB_Data       209693      0.00%      0.00% (Unspecified)
board.cache_hierarchy.ruby_system.L2Cache_Controller.MT_I.WB_Data_clean           16      0.00%      0.00% (Unspecified)
board.cache_hierarchy.ruby_system.L2Cache_Controller.MT_I.Ack_all        27667      0.00%      0.00% (Unspecified)
board.cache_hierarchy.ruby_system.L2Cache_Controller.MT_I.MEM_Inv        11246      0.00%      0.00% (Unspecified)
board.cache_hierarchy.ruby_system.L2Cache_Controller.MCT_I.L1_PUTX_old          583      0.00%      0.00% (Unspecified)
board.cache_hierarchy.ruby_system.L2Cache_Controller.MCT_I.WB_Data       471017      0.00%      0.00% (Unspecified)
board.cache_hierarchy.ruby_system.L2Cache_Controller.MCT_I.WB_Data_clean          384      0.00%      0.00% (Unspecified)
board.cache_hierarchy.ruby_system.L2Cache_Controller.MCT_I.Ack_all       853828      0.00%      0.00% (Unspecified)
board.cache_hierarchy.ruby_system.L2Cache_Controller.I_I.L1_GET_INSTR         1409      0.00%      0.00% (Unspecified)
board.cache_hierarchy.ruby_system.L2Cache_Controller.I_I.Ack_all     62270297      0.00%      0.00% (Unspecified)
board.cache_hierarchy.ruby_system.L2Cache_Controller.S_I.Ack_all          802      0.00%      0.00% (Unspecified)
board.cache_hierarchy.ruby_system.L2Cache_Controller.ISS.Mem_Data     30163545      0.00%      0.00% (Unspecified)
board.cache_hierarchy.ruby_system.L2Cache_Controller.IS.Mem_Data     62267718      0.00%      0.00% (Unspecified)
board.cache_hierarchy.ruby_system.L2Cache_Controller.IM.Mem_Data     12547658      0.00%      0.00% (Unspecified)
board.cache_hierarchy.ruby_system.L2Cache_Controller.SS_MB.Exclusive_Unblock          257      0.00%      0.00% (Unspecified)
board.cache_hierarchy.ruby_system.L2Cache_Controller.MT_MB.Exclusive_Unblock     67534115      0.00%      0.00% (Unspecified)
board.cache_hierarchy.ruby_system.RequestType.LD.latency_hist_seqr::bucket_size          512                       (Unspecified)
board.cache_hierarchy.ruby_system.RequestType.LD.latency_hist_seqr::max_bucket         5119                       (Unspecified)
board.cache_hierarchy.ruby_system.RequestType.LD.latency_hist_seqr::samples   1156106819                       (Unspecified)
board.cache_hierarchy.ruby_system.RequestType.LD.latency_hist_seqr::mean     6.699533                       (Unspecified)
board.cache_hierarchy.ruby_system.RequestType.LD.latency_hist_seqr::gmean     1.206244                       (Unspecified)
board.cache_hierarchy.ruby_system.RequestType.LD.latency_hist_seqr::stdev    36.972445                       (Unspecified)
board.cache_hierarchy.ruby_system.RequestType.LD.latency_hist_seqr |  1155518626     99.95%     99.95% |      552613      0.05%    100.00% |       33698      0.00%    100.00% |        1473      0.00%    100.00% |         318      0.00%    100.00% |          74      0.00%    100.00% |          14      0.00%    100.00% |           2      0.00%    100.00% |           1      0.00%    100.00% |           0      0.00%    100.00% (Unspecified)
board.cache_hierarchy.ruby_system.RequestType.LD.latency_hist_seqr::total   1156106819                       (Unspecified)
board.cache_hierarchy.ruby_system.RequestType.LD.hit_latency_hist_seqr::bucket_size            1                       (Unspecified)
board.cache_hierarchy.ruby_system.RequestType.LD.hit_latency_hist_seqr::max_bucket            9                       (Unspecified)
board.cache_hierarchy.ruby_system.RequestType.LD.hit_latency_hist_seqr::samples   1104832400                       (Unspecified)
board.cache_hierarchy.ruby_system.RequestType.LD.hit_latency_hist_seqr::mean     1.000819                       (Unspecified)
board.cache_hierarchy.ruby_system.RequestType.LD.hit_latency_hist_seqr::gmean     1.000568                       (Unspecified)
board.cache_hierarchy.ruby_system.RequestType.LD.hit_latency_hist_seqr::stdev     0.028625                       (Unspecified)
board.cache_hierarchy.ruby_system.RequestType.LD.hit_latency_hist_seqr |           0      0.00%      0.00% |  1103927556     99.92%     99.92% |      904454      0.08%    100.00% |         385      0.00%    100.00% |           5      0.00%    100.00% |           0      0.00%    100.00% |           0      0.00%    100.00% |           0      0.00%    100.00% |           0      0.00%    100.00% |           0      0.00%    100.00% (Unspecified)
board.cache_hierarchy.ruby_system.RequestType.LD.hit_latency_hist_seqr::total   1104832400                       (Unspecified)
board.cache_hierarchy.ruby_system.RequestType.LD.miss_latency_hist_seqr::bucket_size          512                       (Unspecified)
board.cache_hierarchy.ruby_system.RequestType.LD.miss_latency_hist_seqr::max_bucket         5119                       (Unspecified)
board.cache_hierarchy.ruby_system.RequestType.LD.miss_latency_hist_seqr::samples     51274419                       (Unspecified)
board.cache_hierarchy.ruby_system.RequestType.LD.miss_latency_hist_seqr::mean   129.492220                       (Unspecified)
board.cache_hierarchy.ruby_system.RequestType.LD.miss_latency_hist_seqr::gmean    67.738960                       (Unspecified)
board.cache_hierarchy.ruby_system.RequestType.LD.miss_latency_hist_seqr::stdev   122.652615                       (Unspecified)
board.cache_hierarchy.ruby_system.RequestType.LD.miss_latency_hist_seqr |    50686226     98.85%     98.85% |      552613      1.08%     99.93% |       33698      0.07%    100.00% |        1473      0.00%    100.00% |         318      0.00%    100.00% |          74      0.00%    100.00% |          14      0.00%    100.00% |           2      0.00%    100.00% |           1      0.00%    100.00% |           0      0.00%    100.00% (Unspecified)
board.cache_hierarchy.ruby_system.RequestType.LD.miss_latency_hist_seqr::total     51274419                       (Unspecified)
board.cache_hierarchy.ruby_system.RequestType.ST.latency_hist_seqr::bucket_size          512                       (Unspecified)
board.cache_hierarchy.ruby_system.RequestType.ST.latency_hist_seqr::max_bucket         5119                       (Unspecified)
board.cache_hierarchy.ruby_system.RequestType.ST.latency_hist_seqr::samples    700473803                       (Unspecified)
board.cache_hierarchy.ruby_system.RequestType.ST.latency_hist_seqr::mean     3.989060                       (Unspecified)
board.cache_hierarchy.ruby_system.RequestType.ST.latency_hist_seqr::gmean     1.115136                       (Unspecified)
board.cache_hierarchy.ruby_system.RequestType.ST.latency_hist_seqr::stdev    25.609933                       (Unspecified)
board.cache_hierarchy.ruby_system.RequestType.ST.latency_hist_seqr |   700279865     99.97%     99.97% |      186115      0.03%    100.00% |        7398      0.00%    100.00% |         361      0.00%    100.00% |          54      0.00%    100.00% |          10      0.00%    100.00% |           0      0.00%    100.00% |           0      0.00%    100.00% |           0      0.00%    100.00% |           0      0.00%    100.00% (Unspecified)
board.cache_hierarchy.ruby_system.RequestType.ST.latency_hist_seqr::total    700473803                       (Unspecified)
board.cache_hierarchy.ruby_system.RequestType.ST.hit_latency_hist_seqr::bucket_size          256                       (Unspecified)
board.cache_hierarchy.ruby_system.RequestType.ST.hit_latency_hist_seqr::max_bucket         2559                       (Unspecified)
board.cache_hierarchy.ruby_system.RequestType.ST.hit_latency_hist_seqr::samples    685803678                       (Unspecified)
board.cache_hierarchy.ruby_system.RequestType.ST.hit_latency_hist_seqr::mean     1.034186                       (Unspecified)
board.cache_hierarchy.ruby_system.RequestType.ST.hit_latency_hist_seqr::gmean     1.013356                       (Unspecified)
board.cache_hierarchy.ruby_system.RequestType.ST.hit_latency_hist_seqr::stdev     1.853448                       (Unspecified)
board.cache_hierarchy.ruby_system.RequestType.ST.hit_latency_hist_seqr |   685800371    100.00%    100.00% |        2314      0.00%    100.00% |         424      0.00%    100.00% |         528      0.00%    100.00% |          24      0.00%    100.00% |          15      0.00%    100.00% |           1      0.00%    100.00% |           1      0.00%    100.00% |           0      0.00%    100.00% |           0      0.00%    100.00% (Unspecified)
board.cache_hierarchy.ruby_system.RequestType.ST.hit_latency_hist_seqr::total    685803678                       (Unspecified)
board.cache_hierarchy.ruby_system.RequestType.ST.miss_latency_hist_seqr::bucket_size          512                       (Unspecified)
board.cache_hierarchy.ruby_system.RequestType.ST.miss_latency_hist_seqr::max_bucket         5119                       (Unspecified)
board.cache_hierarchy.ruby_system.RequestType.ST.miss_latency_hist_seqr::samples     14670125                       (Unspecified)
board.cache_hierarchy.ruby_system.RequestType.ST.miss_latency_hist_seqr::mean   142.124455                       (Unspecified)
board.cache_hierarchy.ruby_system.RequestType.ST.miss_latency_hist_seqr::gmean    97.829207                       (Unspecified)
board.cache_hierarchy.ruby_system.RequestType.ST.miss_latency_hist_seqr::stdev   108.011456                       (Unspecified)
board.cache_hierarchy.ruby_system.RequestType.ST.miss_latency_hist_seqr |    14477180     98.68%     98.68% |      185163      1.26%     99.95% |        7359      0.05%    100.00% |         359      0.00%    100.00% |          54      0.00%    100.00% |          10      0.00%    100.00% |           0      0.00%    100.00% |           0      0.00%    100.00% |           0      0.00%    100.00% |           0      0.00%    100.00% (Unspecified)
board.cache_hierarchy.ruby_system.RequestType.ST.miss_latency_hist_seqr::total     14670125                       (Unspecified)
board.cache_hierarchy.ruby_system.RequestType.IFETCH.latency_hist_seqr::bucket_size          512                       (Unspecified)
board.cache_hierarchy.ruby_system.RequestType.IFETCH.latency_hist_seqr::max_bucket         5119                       (Unspecified)
board.cache_hierarchy.ruby_system.RequestType.IFETCH.latency_hist_seqr::samples    839754035                       (Unspecified)
board.cache_hierarchy.ruby_system.RequestType.IFETCH.latency_hist_seqr::mean    15.053300                       (Unspecified)
board.cache_hierarchy.ruby_system.RequestType.IFETCH.latency_hist_seqr::gmean     1.681350                       (Unspecified)
board.cache_hierarchy.ruby_system.RequestType.IFETCH.latency_hist_seqr::stdev    53.683692                       (Unspecified)
board.cache_hierarchy.ruby_system.RequestType.IFETCH.latency_hist_seqr |   838790228     99.89%     99.89% |      919920      0.11%     99.99% |       40304      0.00%    100.00% |        2972      0.00%    100.00% |         513      0.00%    100.00% |          87      0.00%    100.00% |          11      0.00%    100.00% |           0      0.00%    100.00% |           0      0.00%    100.00% |           0      0.00%    100.00% (Unspecified)
board.cache_hierarchy.ruby_system.RequestType.IFETCH.latency_hist_seqr::total    839754035                       (Unspecified)
board.cache_hierarchy.ruby_system.RequestType.IFETCH.hit_latency_hist_seqr::bucket_size            1                       (Unspecified)
board.cache_hierarchy.ruby_system.RequestType.IFETCH.hit_latency_hist_seqr::max_bucket            9                       (Unspecified)
board.cache_hierarchy.ruby_system.RequestType.IFETCH.hit_latency_hist_seqr::samples    732417063                       (Unspecified)
board.cache_hierarchy.ruby_system.RequestType.IFETCH.hit_latency_hist_seqr::mean     1.000002                       (Unspecified)
board.cache_hierarchy.ruby_system.RequestType.IFETCH.hit_latency_hist_seqr::gmean     1.000002                       (Unspecified)
board.cache_hierarchy.ruby_system.RequestType.IFETCH.hit_latency_hist_seqr::stdev     0.001523                       (Unspecified)
board.cache_hierarchy.ruby_system.RequestType.IFETCH.hit_latency_hist_seqr |           0      0.00%      0.00% |   732415473    100.00%    100.00% |        1554      0.00%    100.00% |          36      0.00%    100.00% |           0      0.00%    100.00% |           0      0.00%    100.00% |           0      0.00%    100.00% |           0      0.00%    100.00% |           0      0.00%    100.00% |           0      0.00%    100.00% (Unspecified)
board.cache_hierarchy.ruby_system.RequestType.IFETCH.hit_latency_hist_seqr::total    732417063                       (Unspecified)
board.cache_hierarchy.ruby_system.RequestType.IFETCH.miss_latency_hist_seqr::bucket_size          512                       (Unspecified)
board.cache_hierarchy.ruby_system.RequestType.IFETCH.miss_latency_hist_seqr::max_bucket         5119                       (Unspecified)
board.cache_hierarchy.ruby_system.RequestType.IFETCH.miss_latency_hist_seqr::samples    107336972                       (Unspecified)
board.cache_hierarchy.ruby_system.RequestType.IFETCH.miss_latency_hist_seqr::mean   110.946401                       (Unspecified)
board.cache_hierarchy.ruby_system.RequestType.IFETCH.miss_latency_hist_seqr::gmean    58.269150                       (Unspecified)
board.cache_hierarchy.ruby_system.RequestType.IFETCH.miss_latency_hist_seqr::stdev   109.562008                       (Unspecified)
board.cache_hierarchy.ruby_system.RequestType.IFETCH.miss_latency_hist_seqr |   106373165     99.10%     99.10% |      919920      0.86%     99.96% |       40304      0.04%    100.00% |        2972      0.00%    100.00% |         513      0.00%    100.00% |          87      0.00%    100.00% |          11      0.00%    100.00% |           0      0.00%    100.00% |           0      0.00%    100.00% |           0      0.00%    100.00% (Unspecified)
board.cache_hierarchy.ruby_system.RequestType.IFETCH.miss_latency_hist_seqr::total    107336972                       (Unspecified)
board.cache_hierarchy.ruby_system.RequestType.RMW_Read.latency_hist_seqr::bucket_size          512                       (Unspecified)
board.cache_hierarchy.ruby_system.RequestType.RMW_Read.latency_hist_seqr::max_bucket         5119                       (Unspecified)
board.cache_hierarchy.ruby_system.RequestType.RMW_Read.latency_hist_seqr::samples     18753244                       (Unspecified)
board.cache_hierarchy.ruby_system.RequestType.RMW_Read.latency_hist_seqr::mean    14.931727                       (Unspecified)
board.cache_hierarchy.ruby_system.RequestType.RMW_Read.latency_hist_seqr::gmean     1.632999                       (Unspecified)
board.cache_hierarchy.ruby_system.RequestType.RMW_Read.latency_hist_seqr::stdev    56.896372                       (Unspecified)
board.cache_hierarchy.ruby_system.RequestType.RMW_Read.latency_hist_seqr |    18729352     99.87%     99.87% |       22310      0.12%     99.99% |        1471      0.01%    100.00% |          91      0.00%    100.00% |          18      0.00%    100.00% |           1      0.00%    100.00% |           1      0.00%    100.00% |           0      0.00%    100.00% |           0      0.00%    100.00% |           0      0.00%    100.00% (Unspecified)
board.cache_hierarchy.ruby_system.RequestType.RMW_Read.latency_hist_seqr::total     18753244                       (Unspecified)
board.cache_hierarchy.ruby_system.RequestType.RMW_Read.hit_latency_hist_seqr::bucket_size          256                       (Unspecified)
board.cache_hierarchy.ruby_system.RequestType.RMW_Read.hit_latency_hist_seqr::max_bucket         2559                       (Unspecified)
board.cache_hierarchy.ruby_system.RequestType.RMW_Read.hit_latency_hist_seqr::samples     17245746                       (Unspecified)
board.cache_hierarchy.ruby_system.RequestType.RMW_Read.hit_latency_hist_seqr::mean     3.771851                       (Unspecified)
board.cache_hierarchy.ruby_system.RequestType.RMW_Read.hit_latency_hist_seqr::gmean     1.162877                       (Unspecified)
board.cache_hierarchy.ruby_system.RequestType.RMW_Read.hit_latency_hist_seqr::stdev    24.388545                       (Unspecified)
board.cache_hierarchy.ruby_system.RequestType.RMW_Read.hit_latency_hist_seqr |    17234269     99.93%     99.93% |        7040      0.04%     99.97% |        2072      0.01%     99.99% |        2233      0.01%    100.00% |          87      0.00%    100.00% |          39      0.00%    100.00% |           5      0.00%    100.00% |           0      0.00%    100.00% |           1      0.00%    100.00% |           0      0.00%    100.00% (Unspecified)
board.cache_hierarchy.ruby_system.RequestType.RMW_Read.hit_latency_hist_seqr::total     17245746                       (Unspecified)
board.cache_hierarchy.ruby_system.RequestType.RMW_Read.miss_latency_hist_seqr::bucket_size          512                       (Unspecified)
board.cache_hierarchy.ruby_system.RequestType.RMW_Read.miss_latency_hist_seqr::max_bucket         5119                       (Unspecified)
board.cache_hierarchy.ruby_system.RequestType.RMW_Read.miss_latency_hist_seqr::samples      1507498                       (Unspecified)
board.cache_hierarchy.ruby_system.RequestType.RMW_Read.miss_latency_hist_seqr::mean   142.600474                       (Unspecified)
board.cache_hierarchy.ruby_system.RequestType.RMW_Read.miss_latency_hist_seqr::gmean    79.402496                       (Unspecified)
board.cache_hierarchy.ruby_system.RequestType.RMW_Read.miss_latency_hist_seqr::stdev   125.467469                       (Unspecified)
board.cache_hierarchy.ruby_system.RequestType.RMW_Read.miss_latency_hist_seqr |     1488043     98.71%     98.71% |       18005      1.19%     99.90% |        1345      0.09%     99.99% |          86      0.01%    100.00% |          17      0.00%    100.00% |           1      0.00%    100.00% |           1      0.00%    100.00% |           0      0.00%    100.00% |           0      0.00%    100.00% |           0      0.00%    100.00% (Unspecified)
board.cache_hierarchy.ruby_system.RequestType.RMW_Read.miss_latency_hist_seqr::total      1507498                       (Unspecified)
board.cache_hierarchy.ruby_system.RequestType.Locked_RMW_Read.latency_hist_seqr::bucket_size          256                       (Unspecified)
board.cache_hierarchy.ruby_system.RequestType.Locked_RMW_Read.latency_hist_seqr::max_bucket         2559                       (Unspecified)
board.cache_hierarchy.ruby_system.RequestType.Locked_RMW_Read.latency_hist_seqr::samples      1885428                       (Unspecified)
board.cache_hierarchy.ruby_system.RequestType.Locked_RMW_Read.latency_hist_seqr::mean    10.332391                       (Unspecified)
board.cache_hierarchy.ruby_system.RequestType.Locked_RMW_Read.latency_hist_seqr::gmean     1.324525                       (Unspecified)
board.cache_hierarchy.ruby_system.RequestType.Locked_RMW_Read.latency_hist_seqr::stdev    46.823559                       (Unspecified)
board.cache_hierarchy.ruby_system.RequestType.Locked_RMW_Read.latency_hist_seqr |     1880243     99.72%     99.72% |        2857      0.15%     99.88% |        1268      0.07%     99.94% |        1012      0.05%    100.00% |          21      0.00%    100.00% |          26      0.00%    100.00% |           1      0.00%    100.00% |           0      0.00%    100.00% |           0      0.00%    100.00% |           0      0.00%    100.00% (Unspecified)
board.cache_hierarchy.ruby_system.RequestType.Locked_RMW_Read.latency_hist_seqr::total      1885428                       (Unspecified)
board.cache_hierarchy.ruby_system.RequestType.Locked_RMW_Read.hit_latency_hist_seqr::bucket_size          128                       (Unspecified)
board.cache_hierarchy.ruby_system.RequestType.Locked_RMW_Read.hit_latency_hist_seqr::max_bucket         1279                       (Unspecified)
board.cache_hierarchy.ruby_system.RequestType.Locked_RMW_Read.hit_latency_hist_seqr::samples      1777748                       (Unspecified)
board.cache_hierarchy.ruby_system.RequestType.Locked_RMW_Read.hit_latency_hist_seqr::mean     1.218066                       (Unspecified)
board.cache_hierarchy.ruby_system.RequestType.Locked_RMW_Read.hit_latency_hist_seqr::gmean     1.006937                       (Unspecified)
board.cache_hierarchy.ruby_system.RequestType.Locked_RMW_Read.hit_latency_hist_seqr::stdev     6.784183                       (Unspecified)
board.cache_hierarchy.ruby_system.RequestType.Locked_RMW_Read.hit_latency_hist_seqr |     1776560     99.93%     99.93% |        1120      0.06%    100.00% |           7      0.00%    100.00% |          26      0.00%    100.00% |          10      0.00%    100.00% |           4      0.00%    100.00% |          10      0.00%    100.00% |          10      0.00%    100.00% |           1      0.00%    100.00% |           0      0.00%    100.00% (Unspecified)
board.cache_hierarchy.ruby_system.RequestType.Locked_RMW_Read.hit_latency_hist_seqr::total      1777748                       (Unspecified)
board.cache_hierarchy.ruby_system.RequestType.Locked_RMW_Read.miss_latency_hist_seqr::bucket_size          256                       (Unspecified)
board.cache_hierarchy.ruby_system.RequestType.Locked_RMW_Read.miss_latency_hist_seqr::max_bucket         2559                       (Unspecified)
board.cache_hierarchy.ruby_system.RequestType.Locked_RMW_Read.miss_latency_hist_seqr::samples       107680                       (Unspecified)
board.cache_hierarchy.ruby_system.RequestType.Locked_RMW_Read.miss_latency_hist_seqr::mean   160.805758                       (Unspecified)
board.cache_hierarchy.ruby_system.RequestType.Locked_RMW_Read.miss_latency_hist_seqr::gmean   122.363271                       (Unspecified)
board.cache_hierarchy.ruby_system.RequestType.Locked_RMW_Read.miss_latency_hist_seqr::stdev   116.684552                       (Unspecified)
board.cache_hierarchy.ruby_system.RequestType.Locked_RMW_Read.miss_latency_hist_seqr |      102563     95.25%     95.25% |        2824      2.62%     97.87% |        1254      1.16%     99.04% |         992      0.92%     99.96% |          20      0.02%     99.97% |          26      0.02%    100.00% |           1      0.00%    100.00% |           0      0.00%    100.00% |           0      0.00%    100.00% |           0      0.00%    100.00% (Unspecified)
board.cache_hierarchy.ruby_system.RequestType.Locked_RMW_Read.miss_latency_hist_seqr::total       107680                       (Unspecified)
board.cache_hierarchy.ruby_system.RequestType.Locked_RMW_Write.latency_hist_seqr::bucket_size            1                       (Unspecified)
board.cache_hierarchy.ruby_system.RequestType.Locked_RMW_Write.latency_hist_seqr::max_bucket            9                       (Unspecified)
board.cache_hierarchy.ruby_system.RequestType.Locked_RMW_Write.latency_hist_seqr::samples      1885481                       (Unspecified)
board.cache_hierarchy.ruby_system.RequestType.Locked_RMW_Write.latency_hist_seqr::mean            1                       (Unspecified)
board.cache_hierarchy.ruby_system.RequestType.Locked_RMW_Write.latency_hist_seqr::gmean            1                       (Unspecified)
board.cache_hierarchy.ruby_system.RequestType.Locked_RMW_Write.latency_hist_seqr |           0      0.00%      0.00% |     1885481    100.00%    100.00% |           0      0.00%    100.00% |           0      0.00%    100.00% |           0      0.00%    100.00% |           0      0.00%    100.00% |           0      0.00%    100.00% |           0      0.00%    100.00% |           0      0.00%    100.00% |           0      0.00%    100.00% (Unspecified)
board.cache_hierarchy.ruby_system.RequestType.Locked_RMW_Write.latency_hist_seqr::total      1885481                       (Unspecified)
board.cache_hierarchy.ruby_system.RequestType.Locked_RMW_Write.hit_latency_hist_seqr::bucket_size            1                       (Unspecified)
board.cache_hierarchy.ruby_system.RequestType.Locked_RMW_Write.hit_latency_hist_seqr::max_bucket            9                       (Unspecified)
board.cache_hierarchy.ruby_system.RequestType.Locked_RMW_Write.hit_latency_hist_seqr::samples      1885481                       (Unspecified)
board.cache_hierarchy.ruby_system.RequestType.Locked_RMW_Write.hit_latency_hist_seqr::mean            1                       (Unspecified)
board.cache_hierarchy.ruby_system.RequestType.Locked_RMW_Write.hit_latency_hist_seqr::gmean            1                       (Unspecified)
board.cache_hierarchy.ruby_system.RequestType.Locked_RMW_Write.hit_latency_hist_seqr |           0      0.00%      0.00% |     1885481    100.00%    100.00% |           0      0.00%    100.00% |           0      0.00%    100.00% |           0      0.00%    100.00% |           0      0.00%    100.00% |           0      0.00%    100.00% |           0      0.00%    100.00% |           0      0.00%    100.00% |           0      0.00%    100.00% (Unspecified)
board.cache_hierarchy.ruby_system.RequestType.Locked_RMW_Write.hit_latency_hist_seqr::total      1885481                       (Unspecified)
board.cache_hierarchy.ruby_system.directory_controllers.power_state.pwrStateResidencyTicks::UNDEFINED 32030352698887                       # Cumulative time (in ticks) in various power states (Tick)
board.cache_hierarchy.ruby_system.directory_controllers.requestToDir.m_buf_msgs     0.001105                       # Average number of messages in buffer (Unspecified)
board.cache_hierarchy.ruby_system.directory_controllers.requestToDir.m_stall_time   372.380343                       # Average number of cycles messages are stalled in this MB (Unspecified)
board.cache_hierarchy.ruby_system.directory_controllers.requestToMemory.m_buf_msgs     0.005621                       # Average number of messages in buffer (Unspecified)
board.cache_hierarchy.ruby_system.directory_controllers.requestToMemory.m_stall_time    96.295589                       # Average number of cycles messages are stalled in this MB (Unspecified)
board.cache_hierarchy.ruby_system.directory_controllers.responseFromDir.m_buf_msgs     0.002204                       # Average number of messages in buffer (Unspecified)
board.cache_hierarchy.ruby_system.directory_controllers.responseFromDir.m_stall_time    54.926757                       # Average number of cycles messages are stalled in this MB (Unspecified)
board.cache_hierarchy.ruby_system.directory_controllers.responseFromMemory.m_buf_msgs     0.001964                       # Average number of messages in buffer (Unspecified)
board.cache_hierarchy.ruby_system.directory_controllers.responseFromMemory.m_stall_time    54.922953                       # Average number of cycles messages are stalled in this MB (Unspecified)
board.cache_hierarchy.ruby_system.directory_controllers.responseToDir.m_buf_msgs     0.001091                       # Average number of messages in buffer (Unspecified)
board.cache_hierarchy.ruby_system.directory_controllers.responseToDir.m_stall_time   331.219082                       # Average number of cycles messages are stalled in this MB (Unspecified)
board.cache_hierarchy.ruby_system.dma_controllers0.dma_sequencer.power_state.pwrStateResidencyTicks::UNDEFINED 32030352698887                       # Cumulative time (in ticks) in various power states (Tick)
board.cache_hierarchy.ruby_system.dma_controllers0.mandatoryQueue.m_buf_msgs     0.000014                       # Average number of messages in buffer (Unspecified)
board.cache_hierarchy.ruby_system.dma_controllers0.mandatoryQueue.m_stall_time    54.915864                       # Average number of cycles messages are stalled in this MB (Unspecified)
board.cache_hierarchy.ruby_system.dma_controllers0.power_state.pwrStateResidencyTicks::UNDEFINED 32030352698887                       # Cumulative time (in ticks) in various power states (Tick)
board.cache_hierarchy.ruby_system.dma_controllers0.requestToDir.m_buf_msgs     0.000080                       # Average number of messages in buffer (Unspecified)
board.cache_hierarchy.ruby_system.dma_controllers0.requestToDir.m_stall_time   329.495186                       # Average number of cycles messages are stalled in this MB (Unspecified)
board.cache_hierarchy.ruby_system.dma_controllers0.responseFromDir.m_buf_msgs     0.000013                       # Average number of messages in buffer (Unspecified)
board.cache_hierarchy.ruby_system.dma_controllers0.responseFromDir.m_stall_time   274.675895                       # Average number of cycles messages are stalled in this MB (Unspecified)
board.cache_hierarchy.ruby_system.dma_controllers1.dma_sequencer.power_state.pwrStateResidencyTicks::UNDEFINED 32030352698887                       # Cumulative time (in ticks) in various power states (Tick)
board.cache_hierarchy.ruby_system.dma_controllers1.power_state.pwrStateResidencyTicks::UNDEFINED 32030352698887                       # Cumulative time (in ticks) in various power states (Tick)
board.cache_hierarchy.ruby_system.l1_controllers.fullyBusyCycles     18793549                       # cycles for which number of transistions == max transitions (Unspecified)
board.cache_hierarchy.ruby_system.l1_controllers.delayHistogram::samples    304715528                       # delay_histogram (Unspecified)
board.cache_hierarchy.ruby_system.l1_controllers.delayHistogram::mean     0.211260                       # delay_histogram (Unspecified)
board.cache_hierarchy.ruby_system.l1_controllers.delayHistogram::stdev     1.282292                       # delay_histogram (Unspecified)
board.cache_hierarchy.ruby_system.l1_controllers.delayHistogram::0-15    304459719     99.92%     99.92% # delay_histogram (Unspecified)
board.cache_hierarchy.ruby_system.l1_controllers.delayHistogram::16-31       244675      0.08%    100.00% # delay_histogram (Unspecified)
board.cache_hierarchy.ruby_system.l1_controllers.delayHistogram::32-47         9305      0.00%    100.00% # delay_histogram (Unspecified)
board.cache_hierarchy.ruby_system.l1_controllers.delayHistogram::48-63         1637      0.00%    100.00% # delay_histogram (Unspecified)
board.cache_hierarchy.ruby_system.l1_controllers.delayHistogram::64-79          180      0.00%    100.00% # delay_histogram (Unspecified)
board.cache_hierarchy.ruby_system.l1_controllers.delayHistogram::80-95           12      0.00%    100.00% # delay_histogram (Unspecified)
board.cache_hierarchy.ruby_system.l1_controllers.delayHistogram::total    304715528                       # delay_histogram (Unspecified)
board.cache_hierarchy.ruby_system.l1_controllers.L1Dcache.m_demand_hits   1811930263                       # Number of cache demand hits (Unspecified)
board.cache_hierarchy.ruby_system.l1_controllers.L1Dcache.m_demand_misses     67564334                       # Number of cache demand misses (Unspecified)
board.cache_hierarchy.ruby_system.l1_controllers.L1Dcache.m_demand_accesses   1879494597                       # Number of cache demand accesses (Unspecified)
board.cache_hierarchy.ruby_system.l1_controllers.L1Icache.m_demand_hits    732586002                       # Number of cache demand hits (Unspecified)
board.cache_hierarchy.ruby_system.l1_controllers.L1Icache.m_demand_misses    107345557                       # Number of cache demand misses (Unspecified)
board.cache_hierarchy.ruby_system.l1_controllers.L1Icache.m_demand_accesses    839931559                       # Number of cache demand accesses (Unspecified)
board.cache_hierarchy.ruby_system.l1_controllers.mandatoryQueue.m_buf_msgs     0.029684                       # Average number of messages in buffer (Unspecified)
board.cache_hierarchy.ruby_system.l1_controllers.mandatoryQueue.m_stall_time    54.981303                       # Average number of cycles messages are stalled in this MB (Unspecified)
board.cache_hierarchy.ruby_system.l1_controllers.mandatoryQueue.m_stall_count        13831                       # Number of times messages were stalled (Unspecified)
board.cache_hierarchy.ruby_system.l1_controllers.power_state.pwrStateResidencyTicks::UNDEFINED 32030352698887                       # Cumulative time (in ticks) in various power states (Tick)
board.cache_hierarchy.ruby_system.l1_controllers.prefetcher.RubyPrefetcher.numMissObserved            0                       # Number of misses observed (Unspecified)
board.cache_hierarchy.ruby_system.l1_controllers.prefetcher.RubyPrefetcher.numAllocatedStreams            0                       # Number of streams allocated for prefetching (Unspecified)
board.cache_hierarchy.ruby_system.l1_controllers.prefetcher.RubyPrefetcher.numPrefetchRequested            0                       # Number of prefetch requests made (Unspecified)
board.cache_hierarchy.ruby_system.l1_controllers.prefetcher.RubyPrefetcher.numHits            0                       # Number of prefetched blocks accessed (for the first time) (Unspecified)
board.cache_hierarchy.ruby_system.l1_controllers.prefetcher.RubyPrefetcher.numPartialHits            0                       # Number of misses observed for a block being prefetched (Unspecified)
board.cache_hierarchy.ruby_system.l1_controllers.prefetcher.RubyPrefetcher.numPagesCrossed            0                       # Number of prefetches across pages (Unspecified)
board.cache_hierarchy.ruby_system.l1_controllers.prefetcher.RubyPrefetcher.numMissedPrefetchedBlocks            0                       # Number of misses for blocks that were prefetched, yet missed (Unspecified)
board.cache_hierarchy.ruby_system.l1_controllers.requestFromL1Cache.m_buf_msgs     0.005009                       # Average number of messages in buffer (Unspecified)
board.cache_hierarchy.ruby_system.l1_controllers.requestFromL1Cache.m_stall_time   109.845907                       # Average number of cycles messages are stalled in this MB (Unspecified)
board.cache_hierarchy.ruby_system.l1_controllers.requestToL1Cache.m_buf_msgs     0.673617                       # Average number of messages in buffer (Unspecified)
board.cache_hierarchy.ruby_system.l1_controllers.requestToL1Cache.m_stall_time   274.594727                       # Average number of cycles messages are stalled in this MB (Unspecified)
board.cache_hierarchy.ruby_system.l1_controllers.responseFromL1Cache.m_buf_msgs     0.001327                       # Average number of messages in buffer (Unspecified)
board.cache_hierarchy.ruby_system.l1_controllers.responseFromL1Cache.m_stall_time   109.833240                       # Average number of cycles messages are stalled in this MB (Unspecified)
board.cache_hierarchy.ruby_system.l1_controllers.responseToL1Cache.m_buf_msgs     0.002504                       # Average number of messages in buffer (Unspecified)
board.cache_hierarchy.ruby_system.l1_controllers.responseToL1Cache.m_stall_time   288.588465                       # Average number of cycles messages are stalled in this MB (Unspecified)
board.cache_hierarchy.ruby_system.l1_controllers.sequencer.power_state.pwrStateResidencyTicks::UNDEFINED 32030352698887                       # Cumulative time (in ticks) in various power states (Tick)
board.cache_hierarchy.ruby_system.l1_controllers.unblockFromL1Cache.m_buf_msgs     0.000702                       # Average number of messages in buffer (Unspecified)
board.cache_hierarchy.ruby_system.l1_controllers.unblockFromL1Cache.m_stall_time    54.922953                       # Average number of cycles messages are stalled in this MB (Unspecified)
board.cache_hierarchy.ruby_system.l2_controllers.fullyBusyCycles       167734                       # cycles for which number of transistions == max transitions (Unspecified)
board.cache_hierarchy.ruby_system.l2_controllers.delayHistogram::samples    582337158                       # delay_histogram (Unspecified)
board.cache_hierarchy.ruby_system.l2_controllers.delayHistogram::mean     0.467726                       # delay_histogram (Unspecified)
board.cache_hierarchy.ruby_system.l2_controllers.delayHistogram::stdev     2.007368                       # delay_histogram (Unspecified)
board.cache_hierarchy.ruby_system.l2_controllers.delayHistogram::0-127    582337027    100.00%    100.00% # delay_histogram (Unspecified)
board.cache_hierarchy.ruby_system.l2_controllers.delayHistogram::128-255          126      0.00%    100.00% # delay_histogram (Unspecified)
board.cache_hierarchy.ruby_system.l2_controllers.delayHistogram::384-511            2      0.00%    100.00% # delay_histogram (Unspecified)
board.cache_hierarchy.ruby_system.l2_controllers.delayHistogram::512-639            2      0.00%    100.00% # delay_histogram (Unspecified)
board.cache_hierarchy.ruby_system.l2_controllers.delayHistogram::1152-1279            1      0.00%    100.00% # delay_histogram (Unspecified)
board.cache_hierarchy.ruby_system.l2_controllers.delayHistogram::total    582337158                       # delay_histogram (Unspecified)
board.cache_hierarchy.ruby_system.l2_controllers.DirRequestFromL2Cache.m_buf_msgs     0.002183                       # Average number of messages in buffer (Unspecified)
board.cache_hierarchy.ruby_system.l2_controllers.DirRequestFromL2Cache.m_stall_time   109.845907                       # Average number of cycles messages are stalled in this MB (Unspecified)
board.cache_hierarchy.ruby_system.l2_controllers.L1RequestFromL2Cache.m_buf_msgs     0.000664                       # Average number of messages in buffer (Unspecified)
board.cache_hierarchy.ruby_system.l2_controllers.L1RequestFromL2Cache.m_stall_time    54.916620                       # Average number of cycles messages are stalled in this MB (Unspecified)
board.cache_hierarchy.ruby_system.l2_controllers.L1RequestToL2Cache.m_buf_msgs     0.002506                       # Average number of messages in buffer (Unspecified)
board.cache_hierarchy.ruby_system.l2_controllers.L1RequestToL2Cache.m_stall_time   369.475315                       # Average number of cycles messages are stalled in this MB (Unspecified)
board.cache_hierarchy.ruby_system.l2_controllers.L1RequestToL2Cache.m_stall_count        10208                       # Number of times messages were stalled (Unspecified)
board.cache_hierarchy.ruby_system.l2_controllers.L2cache.m_demand_hits     69930968                       # Number of cache demand hits (Unspecified)
board.cache_hierarchy.ruby_system.l2_controllers.L2cache.m_demand_misses    104978923                       # Number of cache demand misses (Unspecified)
board.cache_hierarchy.ruby_system.l2_controllers.L2cache.m_demand_accesses    174909891                       # Number of cache demand accesses (Unspecified)
board.cache_hierarchy.ruby_system.l2_controllers.power_state.pwrStateResidencyTicks::UNDEFINED 32030352698887                       # Cumulative time (in ticks) in various power states (Tick)
board.cache_hierarchy.ruby_system.l2_controllers.responseFromL2Cache.m_buf_msgs     0.005414                       # Average number of messages in buffer (Unspecified)
board.cache_hierarchy.ruby_system.l2_controllers.responseFromL2Cache.m_stall_time    93.922013                       # Average number of cycles messages are stalled in this MB (Unspecified)
board.cache_hierarchy.ruby_system.l2_controllers.responseToL2Cache.m_buf_msgs     0.002848                       # Average number of messages in buffer (Unspecified)
board.cache_hierarchy.ruby_system.l2_controllers.responseToL2Cache.m_stall_time   277.096225                       # Average number of cycles messages are stalled in this MB (Unspecified)
board.cache_hierarchy.ruby_system.l2_controllers.unblockToL2Cache.m_buf_msgs     0.000702                       # Average number of messages in buffer (Unspecified)
board.cache_hierarchy.ruby_system.l2_controllers.unblockToL2Cache.m_stall_time   274.618535                       # Average number of cycles messages are stalled in this MB (Unspecified)
board.cache_hierarchy.ruby_system.network.msg_count.Control    559777628                       (Unspecified)
board.cache_hierarchy.ruby_system.network.msg_byte.Control   4478221024                       (Unspecified)
board.cache_hierarchy.ruby_system.network.msg_count.Request_Control    127667408                       (Unspecified)
board.cache_hierarchy.ruby_system.network.msg_byte.Request_Control   1021339264                       (Unspecified)
board.cache_hierarchy.ruby_system.network.msg_count.Response_Data    596674344                       (Unspecified)
board.cache_hierarchy.ruby_system.network.msg_byte.Response_Data  42960552768                       (Unspecified)
board.cache_hierarchy.ruby_system.network.msg_count.Response_Control    777431868                       (Unspecified)
board.cache_hierarchy.ruby_system.network.msg_byte.Response_Control   6219454944                       (Unspecified)
board.cache_hierarchy.ruby_system.network.msg_count.Writeback_Data     48655378                       (Unspecified)
board.cache_hierarchy.ruby_system.network.msg_byte.Writeback_Data   3503187216                       (Unspecified)
board.cache_hierarchy.ruby_system.network.msg_count.Writeback_Control     88936586                       (Unspecified)
board.cache_hierarchy.ruby_system.network.msg_byte.Writeback_Control    711492688                       (Unspecified)
board.cache_hierarchy.ruby_system.network.int_link_buffers0.m_buf_msgs     0.015185                       # Average number of messages in buffer (Unspecified)
board.cache_hierarchy.ruby_system.network.int_link_buffers0.m_stall_time  1557.431989                       # Average number of cycles messages are stalled in this MB (Unspecified)
board.cache_hierarchy.ruby_system.network.int_link_buffers1.m_buf_msgs     0.004024                       # Average number of messages in buffer (Unspecified)
board.cache_hierarchy.ruby_system.network.int_link_buffers1.m_stall_time  1332.577423                       # Average number of cycles messages are stalled in this MB (Unspecified)
board.cache_hierarchy.ruby_system.network.int_link_buffers2.m_buf_msgs     0.004257                       # Average number of messages in buffer (Unspecified)
board.cache_hierarchy.ruby_system.network.int_link_buffers2.m_stall_time   999.012687                       # Average number of cycles messages are stalled in this MB (Unspecified)
board.cache_hierarchy.ruby_system.network.int_link_buffers21.m_buf_msgs     0.015185                       # Average number of messages in buffer (Unspecified)
board.cache_hierarchy.ruby_system.network.int_link_buffers21.m_stall_time  1083.714170                       # Average number of cycles messages are stalled in this MB (Unspecified)
board.cache_hierarchy.ruby_system.network.int_link_buffers22.m_buf_msgs     0.004024                       # Average number of messages in buffer (Unspecified)
board.cache_hierarchy.ruby_system.network.int_link_buffers22.m_stall_time   999.070491                       # Average number of cycles messages are stalled in this MB (Unspecified)
board.cache_hierarchy.ruby_system.network.int_link_buffers25.m_buf_msgs     0.006618                       # Average number of messages in buffer (Unspecified)
board.cache_hierarchy.ruby_system.network.int_link_buffers25.m_stall_time  1583.178641                       # Average number of cycles messages are stalled in this MB (Unspecified)
board.cache_hierarchy.ruby_system.network.int_link_buffers26.m_buf_msgs     0.006618                       # Average number of messages in buffer (Unspecified)
board.cache_hierarchy.ruby_system.network.int_link_buffers26.m_stall_time  1342.421628                       # Average number of cycles messages are stalled in this MB (Unspecified)
board.cache_hierarchy.ruby_system.network.int_link_buffers46.m_buf_msgs     0.013244                       # Average number of messages in buffer (Unspecified)
board.cache_hierarchy.ruby_system.network.int_link_buffers46.m_stall_time  1000.885228                       # Average number of cycles messages are stalled in this MB (Unspecified)
board.cache_hierarchy.ruby_system.network.int_link_buffers51.m_buf_msgs     0.000081                       # Average number of messages in buffer (Unspecified)
board.cache_hierarchy.ruby_system.network.int_link_buffers51.m_stall_time   999.585629                       # Average number of cycles messages are stalled in this MB (Unspecified)
board.cache_hierarchy.ruby_system.network.int_link_buffers70.m_buf_msgs     0.000081                       # Average number of messages in buffer (Unspecified)
board.cache_hierarchy.ruby_system.network.int_link_buffers70.m_stall_time         2664                       # Average number of cycles messages are stalled in this MB (Unspecified)
board.cache_hierarchy.ruby_system.network.power_state.pwrStateResidencyTicks::UNDEFINED 32030352698887                       # Cumulative time (in ticks) in various power states (Tick)
board.cache_hierarchy.ruby_system.network.routers0.percent_links_utilized     1.431554                       (Unspecified)
board.cache_hierarchy.ruby_system.network.routers0.msg_count.Control::0    174909891                       (Unspecified)
board.cache_hierarchy.ruby_system.network.routers0.msg_bytes.Control::0   1399279128                       (Unspecified)
board.cache_hierarchy.ruby_system.network.routers0.msg_count.Request_Control::2     63833704                       (Unspecified)
board.cache_hierarchy.ruby_system.network.routers0.msg_bytes.Request_Control::2    510669632                       (Unspecified)
board.cache_hierarchy.ruby_system.network.routers0.msg_count.Response_Data::1    174909670                       (Unspecified)
board.cache_hierarchy.ruby_system.network.routers0.msg_bytes.Response_Data::1  12593496240                       (Unspecified)
board.cache_hierarchy.ruby_system.network.routers0.msg_count.Response_Control::1    129124748                       (Unspecified)
board.cache_hierarchy.ruby_system.network.routers0.msg_count.Response_Control::2     67534372                       (Unspecified)
board.cache_hierarchy.ruby_system.network.routers0.msg_bytes.Response_Control::1   1032997984                       (Unspecified)
board.cache_hierarchy.ruby_system.network.routers0.msg_bytes.Response_Control::2    540274976                       (Unspecified)
board.cache_hierarchy.ruby_system.network.routers0.msg_count.Writeback_Data::0     23646579                       (Unspecified)
board.cache_hierarchy.ruby_system.network.routers0.msg_count.Writeback_Data::1       681110                       (Unspecified)
board.cache_hierarchy.ruby_system.network.routers0.msg_bytes.Writeback_Data::0   1702553688                       (Unspecified)
board.cache_hierarchy.ruby_system.network.routers0.msg_bytes.Writeback_Data::1     49039920                       (Unspecified)
board.cache_hierarchy.ruby_system.network.routers0.msg_count.Writeback_Control::0     42325356                       (Unspecified)
board.cache_hierarchy.ruby_system.network.routers0.msg_bytes.Writeback_Control::0    338602848                       (Unspecified)
board.cache_hierarchy.ruby_system.network.routers0.port_buffers1.m_buf_msgs     0.002504                       # Average number of messages in buffer (Unspecified)
board.cache_hierarchy.ruby_system.network.routers0.port_buffers1.m_stall_time   233.665513                       # Average number of cycles messages are stalled in this MB (Unspecified)
board.cache_hierarchy.ruby_system.network.routers0.port_buffers2.m_buf_msgs     0.000664                       # Average number of messages in buffer (Unspecified)
board.cache_hierarchy.ruby_system.network.routers0.port_buffers2.m_stall_time   219.678106                       # Average number of cycles messages are stalled in this MB (Unspecified)
board.cache_hierarchy.ruby_system.network.routers0.port_buffers3.m_buf_msgs     0.003731                       # Average number of messages in buffer (Unspecified)
board.cache_hierarchy.ruby_system.network.routers0.port_buffers3.m_stall_time   201.946712                       # Average number of cycles messages are stalled in this MB (Unspecified)
board.cache_hierarchy.ruby_system.network.routers0.port_buffers4.m_buf_msgs     0.000665                       # Average number of messages in buffer (Unspecified)
board.cache_hierarchy.ruby_system.network.routers0.port_buffers4.m_stall_time   164.845082                       # Average number of cycles messages are stalled in this MB (Unspecified)
board.cache_hierarchy.ruby_system.network.routers0.port_buffers5.m_buf_msgs     0.000702                       # Average number of messages in buffer (Unspecified)
board.cache_hierarchy.ruby_system.network.routers0.port_buffers5.m_stall_time   109.847998                       # Average number of cycles messages are stalled in this MB (Unspecified)
board.cache_hierarchy.ruby_system.network.routers0.power_state.pwrStateResidencyTicks::UNDEFINED 32030352698887                       # Cumulative time (in ticks) in various power states (Tick)
board.cache_hierarchy.ruby_system.network.routers0.throttle00.link_utilization     5.370972                       (Unspecified)
board.cache_hierarchy.ruby_system.network.routers0.throttle00.msg_count.Request_Control::2     63833704                       (Unspecified)
board.cache_hierarchy.ruby_system.network.routers0.throttle00.msg_bytes.Request_Control::2    510669632                       (Unspecified)
board.cache_hierarchy.ruby_system.network.routers0.throttle00.msg_count.Response_Data::1    174909670                       (Unspecified)
board.cache_hierarchy.ruby_system.network.routers0.throttle00.msg_bytes.Response_Data::1  12593496240                       (Unspecified)
board.cache_hierarchy.ruby_system.network.routers0.throttle00.msg_count.Response_Control::1     65972154                       (Unspecified)
board.cache_hierarchy.ruby_system.network.routers0.throttle00.msg_bytes.Response_Control::1    527777232                       (Unspecified)
board.cache_hierarchy.ruby_system.network.routers0.throttle01.link_utilization     1.786797                       (Unspecified)
board.cache_hierarchy.ruby_system.network.routers0.throttle01.msg_count.Control::0    174909891                       (Unspecified)
board.cache_hierarchy.ruby_system.network.routers0.throttle01.msg_bytes.Control::0   1399279128                       (Unspecified)
board.cache_hierarchy.ruby_system.network.routers0.throttle01.msg_count.Response_Control::1     63152594                       (Unspecified)
board.cache_hierarchy.ruby_system.network.routers0.throttle01.msg_count.Response_Control::2     67534372                       (Unspecified)
board.cache_hierarchy.ruby_system.network.routers0.throttle01.msg_bytes.Response_Control::1    505220752                       (Unspecified)
board.cache_hierarchy.ruby_system.network.routers0.throttle01.msg_bytes.Response_Control::2    540274976                       (Unspecified)
board.cache_hierarchy.ruby_system.network.routers0.throttle01.msg_count.Writeback_Data::0     23646579                       (Unspecified)
board.cache_hierarchy.ruby_system.network.routers0.throttle01.msg_count.Writeback_Data::1       681110                       (Unspecified)
board.cache_hierarchy.ruby_system.network.routers0.throttle01.msg_bytes.Writeback_Data::0   1702553688                       (Unspecified)
board.cache_hierarchy.ruby_system.network.routers0.throttle01.msg_bytes.Writeback_Data::1     49039920                       (Unspecified)
board.cache_hierarchy.ruby_system.network.routers0.throttle01.msg_count.Writeback_Control::0     42325356                       (Unspecified)
board.cache_hierarchy.ruby_system.network.routers0.throttle01.msg_bytes.Writeback_Control::0    338602848                       (Unspecified)
board.cache_hierarchy.ruby_system.network.routers0.throttle02.link_utilization            0                       (Unspecified)
board.cache_hierarchy.ruby_system.network.routers0.throttle03.link_utilization            0                       (Unspecified)
board.cache_hierarchy.ruby_system.network.routers0.throttle04.link_utilization            0                       (Unspecified)
board.cache_hierarchy.ruby_system.network.routers1.percent_links_utilized     2.316699                       (Unspecified)
board.cache_hierarchy.ruby_system.network.routers1.msg_count.Control::0    279888814                       (Unspecified)
board.cache_hierarchy.ruby_system.network.routers1.msg_bytes.Control::0   2239110512                       (Unspecified)
board.cache_hierarchy.ruby_system.network.routers1.msg_count.Request_Control::2     63833704                       (Unspecified)
board.cache_hierarchy.ruby_system.network.routers1.msg_bytes.Request_Control::2    510669632                       (Unspecified)
board.cache_hierarchy.ruby_system.network.routers1.msg_count.Response_Data::1    297914939                       (Unspecified)
board.cache_hierarchy.ruby_system.network.routers1.msg_bytes.Response_Data::1  21449875608                       (Unspecified)
board.cache_hierarchy.ruby_system.network.routers1.msg_count.Response_Control::1    321181562                       (Unspecified)
board.cache_hierarchy.ruby_system.network.routers1.msg_count.Response_Control::2     67534372                       (Unspecified)
board.cache_hierarchy.ruby_system.network.routers1.msg_bytes.Response_Control::1   2569452496                       (Unspecified)
board.cache_hierarchy.ruby_system.network.routers1.msg_bytes.Response_Control::2    540274976                       (Unspecified)
board.cache_hierarchy.ruby_system.network.routers1.msg_count.Writeback_Data::0     23646579                       (Unspecified)
board.cache_hierarchy.ruby_system.network.routers1.msg_count.Writeback_Data::1       681110                       (Unspecified)
board.cache_hierarchy.ruby_system.network.routers1.msg_bytes.Writeback_Data::0   1702553688                       (Unspecified)
board.cache_hierarchy.ruby_system.network.routers1.msg_bytes.Writeback_Data::1     49039920                       (Unspecified)
board.cache_hierarchy.ruby_system.network.routers1.msg_count.Writeback_Control::0     42325356                       (Unspecified)
[...]
board.processor.cores1.core.fetch.nisnDist::underflows            0      0.00%      0.00% # Number of instructions fetched each cycle (Total) (Count)
board.processor.cores1.core.fetch.nisnDist::0   7211980040     77.63%     77.63% # Number of instructions fetched each cycle (Total) (Count)
board.processor.cores1.core.fetch.nisnDist::1    125251257      1.35%     78.98% # Number of instructions fetched each cycle (Total) (Count)
board.processor.cores1.core.fetch.nisnDist::2    114589037      1.23%     80.21% # Number of instructions fetched each cycle (Total) (Count)
board.processor.cores1.core.fetch.nisnDist::3    112344795      1.21%     81.42% # Number of instructions fetched each cycle (Total) (Count)
board.processor.cores1.core.fetch.nisnDist::4    242645977      2.61%     84.03% # Number of instructions fetched each cycle (Total) (Count)
board.processor.cores1.core.fetch.nisnDist::5    147653828      1.59%     85.62% # Number of instructions fetched each cycle (Total) (Count)
board.processor.cores1.core.fetch.nisnDist::6    108958299      1.17%     86.80% # Number of instructions fetched each cycle (Total) (Count)
board.processor.cores1.core.fetch.nisnDist::7    108198289      1.16%     87.96% # Number of instructions fetched each cycle (Total) (Count)
board.processor.cores1.core.fetch.nisnDist::8   1118503318     12.04%    100.00% # Number of instructions fetched each cycle (Total) (Count)
board.processor.cores1.core.fetch.nisnDist::overflows            0      0.00%    100.00% # Number of instructions fetched each cycle (Total) (Count)
board.processor.cores1.core.fetch.nisnDist::min_value            0                       # Number of instructions fetched each cycle (Total) (Count)
board.processor.cores1.core.fetch.nisnDist::max_value            8                       # Number of instructions fetched each cycle (Total) (Count)
board.processor.cores1.core.fetch.nisnDist::total   9290124840                       # Number of instructions fetched each cycle (Total) (Count)
board.processor.cores1.core.fetch.branchRate     0.084170                       # Number of branch fetches per cycle (Ratio)
board.processor.cores1.core.fetch.rate       0.407220                       # Number of inst fetches per cycle ((Count/Cycle))
board.processor.cores1.core.iew.idleCycles            0                       # Number of cycles IEW is idle (Cycle)
board.processor.cores1.core.iew.squashCycles    101392425                       # Number of cycles IEW is squashing (Cycle)
board.processor.cores1.core.iew.blockCycles    945767798                       # Number of cycles IEW is blocking (Cycle)
board.processor.cores1.core.iew.unblockCycles    361949456                       # Number of cycles IEW is unblocking (Cycle)
board.processor.cores1.core.iew.dispatchedInsts  10999207029                       # Number of instructions dispatched to IQ (Count)
board.processor.cores1.core.iew.dispSquashedInsts     11394501                       # Number of squashed instructions skipped by dispatch (Count)
board.processor.cores1.core.iew.dispLoadInsts   1483833152                       # Number of dispatched load instructions (Count)
board.processor.cores1.core.iew.dispStoreInsts    979220825                       # Number of dispatched store instructions (Count)
board.processor.cores1.core.iew.dispNonSpecInsts     11477352                       # Number of dispatched non-speculative instructions (Count)
board.processor.cores1.core.iew.iqFullEvents      5013426                       # Number of times the IQ has become full, causing a stall (Count)
board.processor.cores1.core.iew.lsqFullEvents    353387491                       # Number of times the LSQ has become full, causing a stall (Count)
board.processor.cores1.core.iew.memOrderViolationEvents      3164252                       # Number of memory order violations (Count)
board.processor.cores1.core.iew.predictedTakenIncorrect     20799479                       # Number of branches that were predicted taken incorrectly (Count)
board.processor.cores1.core.iew.predictedNotTakenIncorrect     84464647                       # Number of branches that were predicted not taken incorrectly (Count)
board.processor.cores1.core.iew.branchMispredicts    105264126                       # Number of branch mispredicts detected at execute (Count)
board.processor.cores1.core.iew.instsToCommit  10172111505                       # Cumulative count of insts sent to commit (Count)
board.processor.cores1.core.iew.writebackCount  10102138972                       # Cumulative count of insts written-back (Count)
board.processor.cores1.core.iew.producerInst   7090955892                       # Number of instructions producing a value (Count)
board.processor.cores1.core.iew.consumerInst  12038099905                       # Number of instructions consuming a value (Count)
board.processor.cores1.core.iew.wbRate       0.637489                       # Insts written-back per cycle ((Count/Cycle))
board.processor.cores1.core.iew.wbFanout     0.589043                       # Average fanout of values written-back ((Count/Count))
board.processor.cores1.core.lsq0.forwLoads    202089979                       # Number of loads that had data forwarded from stores (Count)
board.processor.cores1.core.lsq0.squashedLoads    383753092                       # Number of loads squashed (Count)
board.processor.cores1.core.lsq0.ignoredResponses      1210468                       # Number of memory responses ignored because the instruction is squashed (Count)
board.processor.cores1.core.lsq0.memOrderViolation      3164252                       # Number of memory ordering violations (Count)
board.processor.cores1.core.lsq0.squashedStores    277000031                       # Number of stores squashed (Count)
board.processor.cores1.core.lsq0.rescheduledLoads       852517                       # Number of loads that were rescheduled (Count)
board.processor.cores1.core.lsq0.blockedByCache      1571623                       # Number of times an access to memory failed due to the cache being blocked (Count)
board.processor.cores1.core.lsq0.loadToUse::samples   1098185954                       # Distribution of cycle latency between the first time a load is issued and its completion (Unspecified)
board.processor.cores1.core.lsq0.loadToUse::mean    10.763707                       # Distribution of cycle latency between the first time a load is issued and its completion (Unspecified)
board.processor.cores1.core.lsq0.loadToUse::stdev    46.619730                       # Distribution of cycle latency between the first time a load is issued and its completion (Unspecified)
board.processor.cores1.core.lsq0.loadToUse::0-9   1035272804     94.27%     94.27% # Distribution of cycle latency between the first time a load is issued and its completion (Unspecified)
board.processor.cores1.core.lsq0.loadToUse::10-19     17387907      1.58%     95.85% # Distribution of cycle latency between the first time a load is issued and its completion (Unspecified)
board.processor.cores1.core.lsq0.loadToUse::20-29      3923901      0.36%     96.21% # Distribution of cycle latency between the first time a load is issued and its completion (Unspecified)
board.processor.cores1.core.lsq0.loadToUse::30-39      1238440      0.11%     96.32% # Distribution of cycle latency between the first time a load is issued and its completion (Unspecified)
board.processor.cores1.core.lsq0.loadToUse::40-49       974776      0.09%     96.41% # Distribution of cycle latency between the first time a load is issued and its completion (Unspecified)
board.processor.cores1.core.lsq0.loadToUse::50-59       557933      0.05%     96.46% # Distribution of cycle latency between the first time a load is issued and its completion (Unspecified)
board.processor.cores1.core.lsq0.loadToUse::60-69       297296      0.03%     96.49% # Distribution of cycle latency between the first time a load is issued and its completion (Unspecified)
board.processor.cores1.core.lsq0.loadToUse::70-79       167164      0.02%     96.51% # Distribution of cycle latency between the first time a load is issued and its completion (Unspecified)
board.processor.cores1.core.lsq0.loadToUse::80-89       207698      0.02%     96.53% # Distribution of cycle latency between the first time a load is issued and its completion (Unspecified)
board.processor.cores1.core.lsq0.loadToUse::90-99       375012      0.03%     96.56% # Distribution of cycle latency between the first time a load is issued and its completion (Unspecified)
board.processor.cores1.core.lsq0.loadToUse::100-109       406858      0.04%     96.60% # Distribution of cycle latency between the first time a load is issued and its completion (Unspecified)
board.processor.cores1.core.lsq0.loadToUse::110-119       478074      0.04%     96.64% # Distribution of cycle latency between the first time a load is issued and its completion (Unspecified)
board.processor.cores1.core.lsq0.loadToUse::120-129       676647      0.06%     96.70% # Distribution of cycle latency between the first time a load is issued and its completion (Unspecified)
board.processor.cores1.core.lsq0.loadToUse::130-139      1537610      0.14%     96.84% # Distribution of cycle latency between the first time a load is issued and its completion (Unspecified)
board.processor.cores1.core.lsq0.loadToUse::140-149      9544755      0.87%     97.71% # Distribution of cycle latency between the first time a load is issued and its completion (Unspecified)
board.processor.cores1.core.lsq0.loadToUse::150-159      3331043      0.30%     98.01% # Distribution of cycle latency between the first time a load is issued and its completion (Unspecified)
board.processor.cores1.core.lsq0.loadToUse::160-169      2004040      0.18%     98.20% # Distribution of cycle latency between the first time a load is issued and its completion (Unspecified)
board.processor.cores1.core.lsq0.loadToUse::170-179       753472      0.07%     98.27% # Distribution of cycle latency between the first time a load is issued and its completion (Unspecified)
board.processor.cores1.core.lsq0.loadToUse::180-189      2124037      0.19%     98.46% # Distribution of cycle latency between the first time a load is issued and its completion (Unspecified)
board.processor.cores1.core.lsq0.loadToUse::190-199      1190692      0.11%     98.57% # Distribution of cycle latency between the first time a load is issued and its completion (Unspecified)
board.processor.cores1.core.lsq0.loadToUse::200-209       696455      0.06%     98.63% # Distribution of cycle latency between the first time a load is issued and its completion (Unspecified)
board.processor.cores1.core.lsq0.loadToUse::210-219       666328      0.06%     98.69% # Distribution of cycle latency between the first time a load is issued and its completion (Unspecified)
board.processor.cores1.core.lsq0.loadToUse::220-229      3097862      0.28%     98.97% # Distribution of cycle latency between the first time a load is issued and its completion (Unspecified)
board.processor.cores1.core.lsq0.loadToUse::230-239      3658452      0.33%     99.31% # Distribution of cycle latency between the first time a load is issued and its completion (Unspecified)
board.processor.cores1.core.lsq0.loadToUse::240-249      1334569      0.12%     99.43% # Distribution of cycle latency between the first time a load is issued and its completion (Unspecified)
board.processor.cores1.core.lsq0.loadToUse::250-259       746398      0.07%     99.50% # Distribution of cycle latency between the first time a load is issued and its completion (Unspecified)
board.processor.cores1.core.lsq0.loadToUse::260-269       392626      0.04%     99.53% # Distribution of cycle latency between the first time a load is issued and its completion (Unspecified)
board.processor.cores1.core.lsq0.loadToUse::270-279       302227      0.03%     99.56% # Distribution of cycle latency between the first time a load is issued and its completion (Unspecified)
board.processor.cores1.core.lsq0.loadToUse::280-289       219038      0.02%     99.58% # Distribution of cycle latency between the first time a load is issued and its completion (Unspecified)
board.processor.cores1.core.lsq0.loadToUse::290-299       144861      0.01%     99.59% # Distribution of cycle latency between the first time a load is issued and its completion (Unspecified)
board.processor.cores1.core.lsq0.loadToUse::overflows      4476979      0.41%    100.00% # Distribution of cycle latency between the first time a load is issued and its completion (Unspecified)
board.processor.cores1.core.lsq0.loadToUse::min_value            2                       # Distribution of cycle latency between the first time a load is issued and its completion (Unspecified)
board.processor.cores1.core.lsq0.loadToUse::max_value         5216                       # Distribution of cycle latency between the first time a load is issued and its completion (Unspecified)
board.processor.cores1.core.lsq0.loadToUse::total   1098185954                       # Distribution of cycle latency between the first time a load is issued and its completion (Unspecified)
board.processor.cores1.core.mmu.dtb.rdAccesses   1395079774                       # TLB accesses on read requests (Count)
board.processor.cores1.core.mmu.dtb.wrAccesses    888858536                       # TLB accesses on write requests (Count)
board.processor.cores1.core.mmu.dtb.rdMisses     28212112                       # TLB misses on read requests (Count)
board.processor.cores1.core.mmu.dtb.wrMisses     10496908                       # TLB misses on write requests (Count)
board.processor.cores1.core.mmu.dtb.walker.power_state.pwrStateResidencyTicks::UNDEFINED 32030352698887                       # Cumulative time (in ticks) in various power states (Tick)
board.processor.cores1.core.mmu.itb.rdAccesses            0                       # TLB accesses on read requests (Count)
board.processor.cores1.core.mmu.itb.wrAccesses    890867663                       # TLB accesses on write requests (Count)
board.processor.cores1.core.mmu.itb.rdMisses            0                       # TLB misses on read requests (Count)
board.processor.cores1.core.mmu.itb.wrMisses     26495588                       # TLB misses on write requests (Count)
board.processor.cores1.core.mmu.itb.walker.power_state.pwrStateResidencyTicks::UNDEFINED 32030352698887                       # Cumulative time (in ticks) in various power states (Tick)
board.processor.cores1.core.power_state.numTransitions           38                       # Number of power state transitions (Count)
board.processor.cores1.core.power_state.ticksClkGated::samples           19                       # Distribution of time spent in the clock gated state (Tick)
board.processor.cores1.core.power_state.ticksClkGated::mean 264037926.894737                       # Distribution of time spent in the clock gated state (Tick)
board.processor.cores1.core.power_state.ticksClkGated::stdev 399333316.974429                       # Distribution of time spent in the clock gated state (Tick)
board.processor.cores1.core.power_state.ticksClkGated::1000-5e+10           19    100.00%    100.00% # Distribution of time spent in the clock gated state (Tick)
board.processor.cores1.core.power_state.ticksClkGated::min_value       403265                       # Distribution of time spent in the clock gated state (Tick)
board.processor.cores1.core.power_state.ticksClkGated::max_value    998169831                       # Distribution of time spent in the clock gated state (Tick)
board.processor.cores1.core.power_state.ticksClkGated::total           19                       # Distribution of time spent in the clock gated state (Tick)
board.processor.cores1.core.power_state.pwrStateResidencyTicks::ON 5275443366224                       # Cumulative time (in ticks) in various power states (Tick)
board.processor.cores1.core.power_state.pwrStateResidencyTicks::CLK_GATED   5016720611                       # Cumulative time (in ticks) in various power states (Tick)
board.processor.cores1.core.power_state.pwrStateResidencyTicks::OFF 26749892612052                       # Cumulative time (in ticks) in various power states (Tick)
board.processor.cores1.core.rename.squashCycles    101392425                       # Number of cycles rename is squashing (Cycle)
board.processor.cores1.core.rename.idleCycles   3649250211                       # Number of cycles rename is idle (Cycle)
board.processor.cores1.core.rename.blockCycles   1949988195                       # Number of cycles rename is blocking (Cycle)
board.processor.cores1.core.rename.serializeStallCycles    519146045                       # count of cycles rename stalled for serializing inst (Cycle)
board.processor.cores1.core.rename.runCycles   1683944195                       # Number of cycles rename is running (Cycle)
board.processor.cores1.core.rename.unblockCycles   1386403769                       # Number of cycles rename is unblocking (Cycle)
board.processor.cores1.core.rename.renamedInsts  11351190711                       # Number of instructions processed by rename (Count)
board.processor.cores1.core.rename.ROBFullEvents     37949108                       # Number of times rename has blocked due to ROB full (Count)
board.processor.cores1.core.rename.IQFullEvents    318157871                       # Number of times rename has blocked due to IQ full (Count)
board.processor.cores1.core.rename.LQFullEvents     95437983                       # Number of times rename has blocked due to LQ full (Count)
board.processor.cores1.core.rename.SQFullEvents    923353002                       # Number of times rename has blocked due to SQ full (Count)
board.processor.cores1.core.rename.fullRegistersEvents         9752                       # Number of times there has been no free registers (Count)
board.processor.cores1.core.rename.renamedOperands  12611497918                       # Number of destination operands rename has renamed (Count)
board.processor.cores1.core.rename.lookups  28351928969                       # Number of register rename lookups that rename has made (Count)
board.processor.cores1.core.rename.intLookups  17393956640                       # Number of integer rename lookups (Count)
board.processor.cores1.core.rename.fpLookups    773250837                       # Number of floating rename lookups (Count)
board.processor.cores1.core.rename.committedMaps   9714446192                       # Number of HB maps that are committed (Count)
board.processor.cores1.core.rename.undoneMaps   2897051771                       # Number of HB maps that are undone due to squashing (Count)
board.processor.cores1.core.rename.serializing     10020650                       # count of serializing insts renamed (Count)
board.processor.cores1.core.rename.tempSerializing      9955069                       # count of temporary serializing insts renamed (Count)
board.processor.cores1.core.rename.skidInsts   1174809297                       # count of insts added to the skid buffer (Count)
board.processor.cores1.core.rob.reads     19384710000                       # The number of ROB reads (Count)
board.processor.cores1.core.rob.writes    22273415563                       # The number of ROB writes (Count)
board.processor.cores1.core.thread_0.numInsts   4372253425                       # Number of Instructions committed (Count)
board.processor.cores1.core.thread_0.numOps   8494833147                       # Number of Ops committed (Count)
board.processor.cores1.core.thread_0.numMemRefs            0                       # Number of Memory References (Count)
board.workload.inst.arm                             0                       # number of arm instructions executed (Count)
board.workload.inst.quiesce                         0                       # number of quiesce instructions executed (Count)

---------- End Simulation Statistics   ----------
