
---------- Begin Simulation Statistics ----------
simSeconds                                   3.081156                       # Number of seconds simulated (Second)
simTicks                                 3081156409350                       # Number of ticks simulated (Tick)
finalTick                                30439557012295                       # Number of ticks from beginning of simulation (restored from checkpoints and never reset) (Tick)
simFreq                                  1000000000000                       # The number of ticks per simulated second ((Tick/Second))
hostSeconds                                  43325.67                       # Real time elapsed on the host (Second)
hostTickRate                                 71116191                       # The number of ticks simulated per host second (ticks/s) ((Tick/Second))
hostMemory                                    6133592                       # Number of bytes of host memory used (Byte)
simInsts                                   8863057144                       # Number of instructions simulated (Count)
simOps                                    12258145057                       # Number of ops (including micro ops) simulated (Count)
hostInstRate                                   204568                       # Simulator instruction rate (inst/s) ((Count/Second))
hostOpRate                                     282930                       # Simulator op (including micro ops) rate (op/s) ((Count/Second))
board.cache_hierarchy.ruby_system.delayHistogram::bucket_size          256                       # delay histogram for all message (Unspecified)
board.cache_hierarchy.ruby_system.delayHistogram::max_bucket         2559                       # delay histogram for all message (Unspecified)
board.cache_hierarchy.ruby_system.delayHistogram::samples    865756712                       # delay histogram for all message (Unspecified)
board.cache_hierarchy.ruby_system.delayHistogram::mean     0.447813                       # delay histogram for all message (Unspecified)
board.cache_hierarchy.ruby_system.delayHistogram::stdev     2.019073                       # delay histogram for all message (Unspecified)
board.cache_hierarchy.ruby_system.delayHistogram |   865756471    100.00%    100.00% |         185      0.00%    100.00% |          26      0.00%    100.00% |          19      0.00%    100.00% |           5      0.00%    100.00% |           3      0.00%    100.00% |           1      0.00%    100.00% |           2      0.00%    100.00% |           0      0.00%    100.00% |           0      0.00%    100.00% # delay histogram for all message (Unspecified)
board.cache_hierarchy.ruby_system.delayHistogram::total    865756712                       # delay histogram for all message (Unspecified)
board.cache_hierarchy.ruby_system.m_outstandReqHistSeqr::bucket_size            2                       (Unspecified)
board.cache_hierarchy.ruby_system.m_outstandReqHistSeqr::max_bucket           19                       (Unspecified)
board.cache_hierarchy.ruby_system.m_outstandReqHistSeqr::samples   2239475064                       (Unspecified)
board.cache_hierarchy.ruby_system.m_outstandReqHistSeqr::mean     2.132080                       (Unspecified)
board.cache_hierarchy.ruby_system.m_outstandReqHistSeqr::gmean     1.782415                       (Unspecified)
board.cache_hierarchy.ruby_system.m_outstandReqHistSeqr::stdev     1.568652                       (Unspecified)
board.cache_hierarchy.ruby_system.m_outstandReqHistSeqr |   919954226     41.08%     41.08% |  1053698102     47.05%     88.13% |   198758423      8.88%     97.01% |    38147473      1.70%     98.71% |    13060719      0.58%     99.29% |     5586316      0.25%     99.54% |     4122713      0.18%     99.73% |     3533825      0.16%     99.88% |     2613267      0.12%    100.00% |           0      0.00%    100.00% (Unspecified)
board.cache_hierarchy.ruby_system.m_outstandReqHistSeqr::total   2239475064                       (Unspecified)
board.cache_hierarchy.ruby_system.m_latencyHistSeqr::bucket_size         1024                       (Unspecified)
board.cache_hierarchy.ruby_system.m_latencyHistSeqr::max_bucket        10239                       (Unspecified)
board.cache_hierarchy.ruby_system.m_latencyHistSeqr::samples   2248599929                       (Unspecified)
board.cache_hierarchy.ruby_system.m_latencyHistSeqr::mean    11.973065                       (Unspecified)
board.cache_hierarchy.ruby_system.m_latencyHistSeqr::gmean     1.378356                       (Unspecified)
board.cache_hierarchy.ruby_system.m_latencyHistSeqr::stdev    54.305287                       (Unspecified)
board.cache_hierarchy.ruby_system.m_latencyHistSeqr |  2248225350     99.98%     99.98% |      370617      0.02%    100.00% |        3481      0.00%    100.00% |         379      0.00%    100.00% |          78      0.00%    100.00% |          18      0.00%    100.00% |           5      0.00%    100.00% |           1      0.00%    100.00% |           0      0.00%    100.00% |           0      0.00%    100.00% (Unspecified)
board.cache_hierarchy.ruby_system.m_latencyHistSeqr::total   2248599929                       (Unspecified)
board.cache_hierarchy.ruby_system.m_hitLatencyHistSeqr::bucket_size          512                       (Unspecified)
board.cache_hierarchy.ruby_system.m_hitLatencyHistSeqr::max_bucket         5119                       (Unspecified)
board.cache_hierarchy.ruby_system.m_hitLatencyHistSeqr::samples   2086570617                       (Unspecified)
board.cache_hierarchy.ruby_system.m_hitLatencyHistSeqr::mean     1.025214                       (Unspecified)
board.cache_hierarchy.ruby_system.m_hitLatencyHistSeqr::gmean     1.004122                       (Unspecified)
board.cache_hierarchy.ruby_system.m_hitLatencyHistSeqr::stdev     2.380522                       (Unspecified)
board.cache_hierarchy.ruby_system.m_hitLatencyHistSeqr |  2086565819    100.00%    100.00% |        4143      0.00%    100.00% |         639      0.00%    100.00% |          10      0.00%    100.00% |           4      0.00%    100.00% |           1      0.00%    100.00% |           1      0.00%    100.00% |           0      0.00%    100.00% |           0      0.00%    100.00% |           0      0.00%    100.00% (Unspecified)
board.cache_hierarchy.ruby_system.m_hitLatencyHistSeqr::total   2086570617                       (Unspecified)
board.cache_hierarchy.ruby_system.m_missLatencyHistSeqr::bucket_size         1024                       (Unspecified)
board.cache_hierarchy.ruby_system.m_missLatencyHistSeqr::max_bucket        10239                       (Unspecified)
board.cache_hierarchy.ruby_system.m_missLatencyHistSeqr::samples    162029312                       (Unspecified)
board.cache_hierarchy.ruby_system.m_missLatencyHistSeqr::mean   152.956601                       (Unspecified)
board.cache_hierarchy.ruby_system.m_missLatencyHistSeqr::gmean    81.473271                       (Unspecified)
board.cache_hierarchy.ruby_system.m_missLatencyHistSeqr::stdev   139.404207                       (Unspecified)
board.cache_hierarchy.ruby_system.m_missLatencyHistSeqr |   161655388     99.77%     99.77% |      369968      0.23%    100.00% |        3476      0.00%    100.00% |         378      0.00%    100.00% |          78      0.00%    100.00% |          18      0.00%    100.00% |           5      0.00%    100.00% |           1      0.00%    100.00% |           0      0.00%    100.00% |           0      0.00%    100.00% (Unspecified)
board.cache_hierarchy.ruby_system.m_missLatencyHistSeqr::total    162029312                       (Unspecified)
board.cache_hierarchy.ruby_system.delayVCHist.vnet_0::bucket_size          256                       # delay histogram for vnet_0 (Unspecified)
board.cache_hierarchy.ruby_system.delayVCHist.vnet_0::max_bucket         2559                       # delay histogram for vnet_0 (Unspecified)
board.cache_hierarchy.ruby_system.delayVCHist.vnet_0::samples    263338577                       # delay histogram for vnet_0 (Unspecified)
board.cache_hierarchy.ruby_system.delayVCHist.vnet_0::mean     1.036882                       # delay histogram for vnet_0 (Unspecified)
board.cache_hierarchy.ruby_system.delayVCHist.vnet_0::stdev     3.191868                       # delay histogram for vnet_0 (Unspecified)
board.cache_hierarchy.ruby_system.delayVCHist.vnet_0 |   263338336    100.00%    100.00% |         185      0.00%    100.00% |          26      0.00%    100.00% |          19      0.00%    100.00% |           5      0.00%    100.00% |           3      0.00%    100.00% |           1      0.00%    100.00% |           2      0.00%    100.00% |           0      0.00%    100.00% |           0      0.00%    100.00% # delay histogram for vnet_0 (Unspecified)
board.cache_hierarchy.ruby_system.delayVCHist.vnet_0::total    263338577                       # delay histogram for vnet_0 (Unspecified)
board.cache_hierarchy.ruby_system.delayVCHist.vnet_1::bucket_size           16                       # delay histogram for vnet_1 (Unspecified)
board.cache_hierarchy.ruby_system.delayVCHist.vnet_1::max_bucket          159                       # delay histogram for vnet_1 (Unspecified)
board.cache_hierarchy.ruby_system.delayVCHist.vnet_1::samples    504822898                       # delay histogram for vnet_1 (Unspecified)
board.cache_hierarchy.ruby_system.delayVCHist.vnet_1::mean     0.227004                       # delay histogram for vnet_1 (Unspecified)
board.cache_hierarchy.ruby_system.delayVCHist.vnet_1::stdev     1.186664                       # delay histogram for vnet_1 (Unspecified)
board.cache_hierarchy.ruby_system.delayVCHist.vnet_1 |   504555368     99.95%     99.95% |      258898      0.05%    100.00% |        7742      0.00%    100.00% |         684      0.00%    100.00% |         134      0.00%    100.00% |          50      0.00%    100.00% |          17      0.00%    100.00% |           5      0.00%    100.00% |           0      0.00%    100.00% |           0      0.00%    100.00% # delay histogram for vnet_1 (Unspecified)
board.cache_hierarchy.ruby_system.delayVCHist.vnet_1::total    504822898                       # delay histogram for vnet_1 (Unspecified)
board.cache_hierarchy.ruby_system.delayVCHist.vnet_2::bucket_size            1                       # delay histogram for vnet_2 (Unspecified)
board.cache_hierarchy.ruby_system.delayVCHist.vnet_2::max_bucket            9                       # delay histogram for vnet_2 (Unspecified)
board.cache_hierarchy.ruby_system.delayVCHist.vnet_2::samples     97595237                       # delay histogram for vnet_2 (Unspecified)
board.cache_hierarchy.ruby_system.delayVCHist.vnet_2::mean     0.000499                       # delay histogram for vnet_2 (Unspecified)
board.cache_hierarchy.ruby_system.delayVCHist.vnet_2::stdev     0.031676                       # delay histogram for vnet_2 (Unspecified)
board.cache_hierarchy.ruby_system.delayVCHist.vnet_2 |    97570960     99.98%     99.98% |           0      0.00%     99.98% |       24207      0.02%    100.00% |           0      0.00%    100.00% |          70      0.00%    100.00% |           0      0.00%    100.00% |           0      0.00%    100.00% |           0      0.00%    100.00% |           0      0.00%    100.00% |           0      0.00%    100.00% # delay histogram for vnet_2 (Unspecified)
board.cache_hierarchy.ruby_system.delayVCHist.vnet_2::total     97595237                       # delay histogram for vnet_2 (Unspecified)
board.cache_hierarchy.ruby_system.Directory_Controller.Fetch    101852289      0.00%      0.00% (Unspecified)
board.cache_hierarchy.ruby_system.Directory_Controller.Data     18552916      0.00%      0.00% (Unspecified)
board.cache_hierarchy.ruby_system.Directory_Controller.Memory_Data    102181403      0.00%      0.00% (Unspecified)
board.cache_hierarchy.ruby_system.Directory_Controller.Memory_Ack     19337932      0.00%      0.00% (Unspecified)
board.cache_hierarchy.ruby_system.Directory_Controller.DMA_READ       373430      0.00%      0.00% (Unspecified)
board.cache_hierarchy.ruby_system.Directory_Controller.DMA_WRITE       785024      0.00%      0.00% (Unspecified)
board.cache_hierarchy.ruby_system.Directory_Controller.CleanReplacement     83295277      0.00%      0.00% (Unspecified)
board.cache_hierarchy.ruby_system.Directory_Controller.I.Fetch    101852289      0.00%      0.00% (Unspecified)
board.cache_hierarchy.ruby_system.Directory_Controller.I.DMA_READ       329114      0.00%      0.00% (Unspecified)
board.cache_hierarchy.ruby_system.Directory_Controller.I.DMA_WRITE       785016      0.00%      0.00% (Unspecified)
board.cache_hierarchy.ruby_system.Directory_Controller.ID.Memory_Data       329114      0.00%      0.00% (Unspecified)
board.cache_hierarchy.ruby_system.Directory_Controller.ID_W.Memory_Ack       785016      0.00%      0.00% (Unspecified)
board.cache_hierarchy.ruby_system.Directory_Controller.M.Data     18508616      0.00%      0.00% (Unspecified)
board.cache_hierarchy.ruby_system.Directory_Controller.M.DMA_READ        44292      0.00%      0.00% (Unspecified)
board.cache_hierarchy.ruby_system.Directory_Controller.M.DMA_WRITE            8      0.00%      0.00% (Unspecified)
board.cache_hierarchy.ruby_system.Directory_Controller.M.CleanReplacement     83295277      0.00%      0.00% (Unspecified)
board.cache_hierarchy.ruby_system.Directory_Controller.IM.Memory_Data    101852289      0.00%      0.00% (Unspecified)
board.cache_hierarchy.ruby_system.Directory_Controller.MI.Memory_Ack     18508616      0.00%      0.00% (Unspecified)
board.cache_hierarchy.ruby_system.Directory_Controller.MI.DMA_READ           24      0.00%      0.00% (Unspecified)
board.cache_hierarchy.ruby_system.Directory_Controller.M_DRD.Data        44292      0.00%      0.00% (Unspecified)
board.cache_hierarchy.ruby_system.Directory_Controller.M_DRDI.Memory_Ack        44292      0.00%      0.00% (Unspecified)
board.cache_hierarchy.ruby_system.Directory_Controller.M_DWR.Data            8      0.00%      0.00% (Unspecified)
board.cache_hierarchy.ruby_system.Directory_Controller.M_DWRI.Memory_Ack            8      0.00%      0.00% (Unspecified)
board.cache_hierarchy.ruby_system.DMA_Controller.ReadRequest |      373406    100.00%    100.00% |           0      0.00%    100.00% (Unspecified)
board.cache_hierarchy.ruby_system.DMA_Controller.ReadRequest::total       373406                       (Unspecified)
board.cache_hierarchy.ruby_system.DMA_Controller.WriteRequest |      785024    100.00%    100.00% |           0      0.00%    100.00% (Unspecified)
board.cache_hierarchy.ruby_system.DMA_Controller.WriteRequest::total       785024                       (Unspecified)
board.cache_hierarchy.ruby_system.DMA_Controller.Data |      373406    100.00%    100.00% |           0      0.00%    100.00% (Unspecified)
board.cache_hierarchy.ruby_system.DMA_Controller.Data::total       373406                       (Unspecified)
board.cache_hierarchy.ruby_system.DMA_Controller.Ack |      785024    100.00%    100.00% |           0      0.00%    100.00% (Unspecified)
board.cache_hierarchy.ruby_system.DMA_Controller.Ack::total       785024                       (Unspecified)
board.cache_hierarchy.ruby_system.DMA_Controller.READY.ReadRequest |      373406    100.00%    100.00% |           0      0.00%    100.00% (Unspecified)
board.cache_hierarchy.ruby_system.DMA_Controller.READY.ReadRequest::total       373406                       (Unspecified)
board.cache_hierarchy.ruby_system.DMA_Controller.READY.WriteRequest |      785024    100.00%    100.00% |           0      0.00%    100.00% (Unspecified)
board.cache_hierarchy.ruby_system.DMA_Controller.READY.WriteRequest::total       785024                       (Unspecified)
board.cache_hierarchy.ruby_system.DMA_Controller.BUSY_RD.Data |      373406    100.00%    100.00% |           0      0.00%    100.00% (Unspecified)
board.cache_hierarchy.ruby_system.DMA_Controller.BUSY_RD.Data::total       373406                       (Unspecified)
board.cache_hierarchy.ruby_system.DMA_Controller.BUSY_WR.Ack |      785024    100.00%    100.00% |           0      0.00%    100.00% (Unspecified)
board.cache_hierarchy.ruby_system.DMA_Controller.BUSY_WR.Ack::total       785024                       (Unspecified)
board.cache_hierarchy.ruby_system.L1Cache_Controller.Load |   272987711     28.07%     28.07% |   217800573     22.39%     50.46% |   242490866     24.93%     75.40% |   239278447     24.60%    100.00% (Unspecified)
board.cache_hierarchy.ruby_system.L1Cache_Controller.Load::total    972557597                       (Unspecified)
board.cache_hierarchy.ruby_system.L1Cache_Controller.Ifetch |   192969156     28.20%     28.20% |   154047006     22.51%     50.71% |   170063861     24.85%     75.56% |   167231208     24.44%    100.00% (Unspecified)
board.cache_hierarchy.ruby_system.L1Cache_Controller.Ifetch::total    684311231                       (Unspecified)
board.cache_hierarchy.ruby_system.L1Cache_Controller.Store |   167259440     28.19%     28.19% |   135257134     22.80%     50.99% |   146912969     24.76%     75.75% |   143855226     24.25%    100.00% (Unspecified)
board.cache_hierarchy.ruby_system.L1Cache_Controller.Store::total    593284769                       (Unspecified)
board.cache_hierarchy.ruby_system.L1Cache_Controller.Inv |    26810815     28.15%     28.15% |    22418523     23.54%     51.70% |    22360568     23.48%     75.18% |    23637697     24.82%    100.00% (Unspecified)
board.cache_hierarchy.ruby_system.L1Cache_Controller.Inv::total     95227603                       (Unspecified)
board.cache_hierarchy.ruby_system.L1Cache_Controller.L1_Replacement |    43258113     28.35%     28.35% |    34926271     22.89%     51.25% |    36892586     24.18%     75.43% |    37489231     24.57%    100.00% (Unspecified)
board.cache_hierarchy.ruby_system.L1Cache_Controller.L1_Replacement::total    152566201                       (Unspecified)
board.cache_hierarchy.ruby_system.L1Cache_Controller.Fwd_GETX |       40542     26.65%     26.65% |       31927     20.99%     47.64% |       41503     27.29%     74.93% |       38131     25.07%    100.00% (Unspecified)
board.cache_hierarchy.ruby_system.L1Cache_Controller.Fwd_GETX::total       152103                       (Unspecified)
board.cache_hierarchy.ruby_system.L1Cache_Controller.Fwd_GETS |      644298     29.08%     29.08% |      493635     22.28%     51.37% |      527784     23.82%     75.19% |      549644     24.81%    100.00% (Unspecified)
board.cache_hierarchy.ruby_system.L1Cache_Controller.Fwd_GETS::total      2215361                       (Unspecified)
board.cache_hierarchy.ruby_system.L1Cache_Controller.Fwd_GET_INSTR |          55     32.35%     32.35% |          41     24.12%     56.47% |          21     12.35%     68.82% |          53     31.18%    100.00% (Unspecified)
board.cache_hierarchy.ruby_system.L1Cache_Controller.Fwd_GET_INSTR::total          170                       (Unspecified)
board.cache_hierarchy.ruby_system.L1Cache_Controller.Data |        3666     50.18%     50.18% |         946     12.95%     63.13% |        1529     20.93%     84.05% |        1165     15.95%    100.00% (Unspecified)
board.cache_hierarchy.ruby_system.L1Cache_Controller.Data::total         7306                       (Unspecified)
board.cache_hierarchy.ruby_system.L1Cache_Controller.Data_Exclusive |    11979940     28.22%     28.22% |     9423471     22.19%     50.41% |    10758539     25.34%     75.75% |    10296920     24.25%    100.00% (Unspecified)
board.cache_hierarchy.ruby_system.L1Cache_Controller.Data_Exclusive::total     42458870                       (Unspecified)
board.cache_hierarchy.ruby_system.L1Cache_Controller.DataS_fromL1 |      552172     24.92%     24.92% |      679722     30.68%     55.60% |      479107     21.62%     77.23% |      504530     22.77%    100.00% (Unspecified)
board.cache_hierarchy.ruby_system.L1Cache_Controller.DataS_fromL1::total      2215531                       (Unspecified)
board.cache_hierarchy.ruby_system.L1Cache_Controller.Data_all_Acks |    32936084     28.14%     28.14% |    27477459     23.48%     51.62% |    27834948     23.79%     75.41% |    28775531     24.59%    100.00% (Unspecified)
board.cache_hierarchy.ruby_system.L1Cache_Controller.Data_all_Acks::total    117024022                       (Unspecified)
board.cache_hierarchy.ruby_system.L1Cache_Controller.Ack |      136852     31.95%     31.95% |      112498     26.27%     58.22% |       92793     21.67%     79.89% |       86138     20.11%    100.00% (Unspecified)
board.cache_hierarchy.ruby_system.L1Cache_Controller.Ack::total       428281                       (Unspecified)
board.cache_hierarchy.ruby_system.L1Cache_Controller.Ack_all |      115373     28.92%     28.92% |      109792     27.52%     56.43% |       90006     22.56%     78.99% |       83811     21.01%    100.00% (Unspecified)
board.cache_hierarchy.ruby_system.L1Cache_Controller.Ack_all::total       398982                       (Unspecified)
board.cache_hierarchy.ruby_system.L1Cache_Controller.WB_Ack |    11764264     28.32%     28.32% |     9325281     22.45%     50.77% |    10566930     25.44%     76.21% |     9881102     23.79%    100.00% (Unspecified)
board.cache_hierarchy.ruby_system.L1Cache_Controller.WB_Ack::total     41537577                       (Unspecified)
board.cache_hierarchy.ruby_system.L1Cache_Controller.NP.Load |    12331074     28.24%     28.24% |     9705454     22.23%     50.47% |    10950391     25.08%     75.55% |    10672707     24.45%    100.00% (Unspecified)
board.cache_hierarchy.ruby_system.L1Cache_Controller.NP.Load::total     43659626                       (Unspecified)
board.cache_hierarchy.ruby_system.L1Cache_Controller.NP.Ifetch |    27168856     28.51%     28.51% |    21849656     22.93%     51.43% |    22689376     23.81%     75.24% |    23600641     24.76%    100.00% (Unspecified)
board.cache_hierarchy.ruby_system.L1Cache_Controller.NP.Ifetch::total     95308529                       (Unspecified)
board.cache_hierarchy.ruby_system.L1Cache_Controller.NP.Store |     3758048     27.64%     27.64% |     3370935     24.79%     52.43% |     3252827     23.92%     76.35% |     3215807     23.65%    100.00% (Unspecified)
board.cache_hierarchy.ruby_system.L1Cache_Controller.NP.Store::total     13597617                       (Unspecified)
board.cache_hierarchy.ruby_system.L1Cache_Controller.NP.Inv |    20036346     29.03%     29.03% |    15427082     22.35%     51.38% |    16198166     23.47%     74.85% |    17356420     25.15%    100.00% (Unspecified)
board.cache_hierarchy.ruby_system.L1Cache_Controller.NP.Inv::total     69018014                       (Unspecified)
board.cache_hierarchy.ruby_system.L1Cache_Controller.I.Load |     1153489     25.18%     25.18% |     1221430     26.66%     51.83% |     1122030     24.49%     76.32% |     1084826     23.68%    100.00% (Unspecified)
board.cache_hierarchy.ruby_system.L1Cache_Controller.I.Load::total      4581775                       (Unspecified)
board.cache_hierarchy.ruby_system.L1Cache_Controller.I.Ifetch |      806133     22.91%     22.91% |     1125627     31.99%     54.91% |      815264     23.17%     78.08% |      771257     21.92%    100.00% (Unspecified)
board.cache_hierarchy.ruby_system.L1Cache_Controller.I.Ifetch::total      3518281                       (Unspecified)
board.cache_hierarchy.ruby_system.L1Cache_Controller.I.Store |      253413     24.50%     24.50% |      307681     29.74%     54.24% |      242636     23.45%     77.69% |      230793     22.31%    100.00% (Unspecified)
board.cache_hierarchy.ruby_system.L1Cache_Controller.I.Store::total      1034523                       (Unspecified)
board.cache_hierarchy.ruby_system.L1Cache_Controller.I.Inv |           3     15.00%     15.00% |           6     30.00%     45.00% |           3     15.00%     60.00% |           8     40.00%    100.00% (Unspecified)
board.cache_hierarchy.ruby_system.L1Cache_Controller.I.Inv::total           20                       (Unspecified)
board.cache_hierarchy.ruby_system.L1Cache_Controller.I.L1_Replacement |     4598931     26.72%     26.72% |     4365497     25.36%     52.08% |     4021020     23.36%     75.44% |     4227526     24.56%    100.00% (Unspecified)
board.cache_hierarchy.ruby_system.L1Cache_Controller.I.L1_Replacement::total     17212974                       (Unspecified)
board.cache_hierarchy.ruby_system.L1Cache_Controller.S.Load |    14126057     23.74%     23.74% |    15969231     26.83%     50.57% |    14674491     24.66%     75.23% |    14740183     24.77%    100.00% (Unspecified)
board.cache_hierarchy.ruby_system.L1Cache_Controller.S.Load::total     59509962                       (Unspecified)
board.cache_hierarchy.ruby_system.L1Cache_Controller.S.Ifetch |   164993423     28.18%     28.18% |   131071216     22.39%     50.57% |   146558982     25.03%     75.60% |   142858805     24.40%    100.00% (Unspecified)
board.cache_hierarchy.ruby_system.L1Cache_Controller.S.Ifetch::total    585482426                       (Unspecified)
board.cache_hierarchy.ruby_system.L1Cache_Controller.S.Store |      112556     28.35%     28.35% |      109661     27.62%     55.97% |       90076     22.69%     78.65% |       84761     21.35%    100.00% (Unspecified)
board.cache_hierarchy.ruby_system.L1Cache_Controller.S.Store::total       397054                       (Unspecified)
board.cache_hierarchy.ruby_system.L1Cache_Controller.S.Inv |     3117299     24.72%     24.72% |     3627260     28.76%     53.48% |     2949900     23.39%     76.87% |     2916726     23.13%    100.00% (Unspecified)
board.cache_hierarchy.ruby_system.L1Cache_Controller.S.Inv::total     12611185                       (Unspecified)
board.cache_hierarchy.ruby_system.L1Cache_Controller.S.L1_Replacement |    26893759     28.67%     28.67% |    21234243     22.64%     51.30% |    22303620     23.78%     75.08% |    23379503     24.92%    100.00% (Unspecified)
board.cache_hierarchy.ruby_system.L1Cache_Controller.S.L1_Replacement::total     93811125                       (Unspecified)
board.cache_hierarchy.ruby_system.L1Cache_Controller.E.Load |   113938222     28.36%     28.36% |    87566198     21.79%     50.15% |   101968346     25.38%     75.53% |    98342860     24.47%    100.00% (Unspecified)
board.cache_hierarchy.ruby_system.L1Cache_Controller.E.Load::total    401815626                       (Unspecified)
board.cache_hierarchy.ruby_system.L1Cache_Controller.E.Store |     1949864     28.32%     28.32% |     1573577     22.85%     51.17% |     1665083     24.18%     75.35% |     1697634     24.65%    100.00% (Unspecified)
board.cache_hierarchy.ruby_system.L1Cache_Controller.E.Store::total      6886158                       (Unspecified)
board.cache_hierarchy.ruby_system.L1Cache_Controller.E.Inv |     1996862     27.01%     27.01% |     1782250     24.11%     51.12% |     1769243     23.93%     75.05% |     1844827     24.95%    100.00% (Unspecified)
board.cache_hierarchy.ruby_system.L1Cache_Controller.E.Inv::total      7393182                       (Unspecified)
board.cache_hierarchy.ruby_system.L1Cache_Controller.E.L1_Replacement |     7529432     28.51%     28.51% |     5670109     21.47%     49.98% |     6903179     26.14%     76.12% |     6306367     23.88%    100.00% (Unspecified)
board.cache_hierarchy.ruby_system.L1Cache_Controller.E.L1_Replacement::total     26409087                       (Unspecified)
board.cache_hierarchy.ruby_system.L1Cache_Controller.E.Fwd_GETX |        5980     26.04%     26.04% |        5538     24.11%     50.15% |        5998     26.12%     76.27% |        5450     23.73%    100.00% (Unspecified)
board.cache_hierarchy.ruby_system.L1Cache_Controller.E.Fwd_GETX::total        22966                       (Unspecified)
board.cache_hierarchy.ruby_system.L1Cache_Controller.E.Fwd_GETS |      497765     28.49%     28.49% |      391961     22.43%     50.92% |      414809     23.74%     74.67% |      442609     25.33%    100.00% (Unspecified)
board.cache_hierarchy.ruby_system.L1Cache_Controller.E.Fwd_GETS::total      1747144                       (Unspecified)
board.cache_hierarchy.ruby_system.L1Cache_Controller.E.Fwd_GET_INSTR |          37     29.84%     29.84% |          36     29.03%     58.87% |          18     14.52%     73.39% |          33     26.61%    100.00% (Unspecified)
board.cache_hierarchy.ruby_system.L1Cache_Controller.E.Fwd_GET_INSTR::total          124                       (Unspecified)
board.cache_hierarchy.ruby_system.L1Cache_Controller.M.Load |   131437379     28.39%     28.39% |   103337019     22.32%     50.71% |   113773412     24.57%     75.28% |   114436652     24.72%    100.00% (Unspecified)
board.cache_hierarchy.ruby_system.L1Cache_Controller.M.Load::total    462984462                       (Unspecified)
board.cache_hierarchy.ruby_system.L1Cache_Controller.M.Store |   161185414     28.21%     28.21% |   129895166     22.73%     50.94% |   141662201     24.79%     75.74% |   138626105     24.26%    100.00% (Unspecified)
board.cache_hierarchy.ruby_system.L1Cache_Controller.M.Store::total    571368886                       (Unspecified)
board.cache_hierarchy.ruby_system.L1Cache_Controller.M.Inv |     1657989     26.79%     26.79% |     1578656     25.51%     52.29% |     1438152     23.24%     75.53% |     1514612     24.47%    100.00% (Unspecified)
board.cache_hierarchy.ruby_system.L1Cache_Controller.M.Inv::total      6189409                       (Unspecified)
board.cache_hierarchy.ruby_system.L1Cache_Controller.M.L1_Replacement |     4234832     27.99%     27.99% |     3655172     24.16%     52.15% |     3663751     24.22%     76.37% |     3574735     23.63%    100.00% (Unspecified)
board.cache_hierarchy.ruby_system.L1Cache_Controller.M.L1_Replacement::total     15128490                       (Unspecified)
board.cache_hierarchy.ruby_system.L1Cache_Controller.M.Fwd_GETX |       34557     26.76%     26.76% |       26386     20.44%     47.20% |       35501     27.50%     74.70% |       32670     25.30%    100.00% (Unspecified)
board.cache_hierarchy.ruby_system.L1Cache_Controller.M.Fwd_GETX::total       129114                       (Unspecified)
board.cache_hierarchy.ruby_system.L1Cache_Controller.M.Fwd_GETS |      146503     31.30%     31.30% |      101640     21.72%     53.02% |      112932     24.13%     77.14% |      106978     22.86%    100.00% (Unspecified)
board.cache_hierarchy.ruby_system.L1Cache_Controller.M.Fwd_GETS::total       468053                       (Unspecified)
board.cache_hierarchy.ruby_system.L1Cache_Controller.IS.Inv |         341      6.90%      6.90% |        1207     24.44%     31.34% |        2211     44.77%     76.11% |        1180     23.89%    100.00% (Unspecified)
board.cache_hierarchy.ruby_system.L1Cache_Controller.IS.Inv::total         4939                       (Unspecified)
board.cache_hierarchy.ruby_system.L1Cache_Controller.IS.L1_Replacement |         968     25.17%     25.17% |        1071     27.85%     53.02% |         889     23.11%     76.13% |         918     23.87%    100.00% (Unspecified)
board.cache_hierarchy.ruby_system.L1Cache_Controller.IS.L1_Replacement::total         3846                       (Unspecified)
board.cache_hierarchy.ruby_system.L1Cache_Controller.IS.Data_Exclusive |    11979875     28.22%     28.22% |     9423422     22.19%     50.41% |    10758501     25.34%     75.75% |    10296876     24.25%    100.00% (Unspecified)
board.cache_hierarchy.ruby_system.L1Cache_Controller.IS.Data_Exclusive::total     42458674                       (Unspecified)
board.cache_hierarchy.ruby_system.L1Cache_Controller.IS.DataS_fromL1 |      552172     24.92%     24.92% |      679722     30.68%     55.60% |      479106     21.62%     77.23% |      504530     22.77%    100.00% (Unspecified)
board.cache_hierarchy.ruby_system.L1Cache_Controller.IS.DataS_fromL1::total      2215530                       (Unspecified)
board.cache_hierarchy.ruby_system.L1Cache_Controller.IS.Data_all_Acks |    28927164     28.25%     28.25% |    23797816     23.24%     51.49% |    24337243     23.77%     75.26% |    25326845     24.74%    100.00% (Unspecified)
board.cache_hierarchy.ruby_system.L1Cache_Controller.IS.Data_all_Acks::total    102389068                       (Unspecified)
board.cache_hierarchy.ruby_system.L1Cache_Controller.IM.Inv |           1     10.00%     10.00% |           2     20.00%     30.00% |           4     40.00%     70.00% |           3     30.00%    100.00% (Unspecified)
board.cache_hierarchy.ruby_system.L1Cache_Controller.IM.Inv::total           10                       (Unspecified)
board.cache_hierarchy.ruby_system.L1Cache_Controller.IM.L1_Replacement |         191     28.13%     28.13% |         179     26.36%     54.49% |         127     18.70%     73.20% |         182     26.80%    100.00% (Unspecified)
board.cache_hierarchy.ruby_system.L1Cache_Controller.IM.L1_Replacement::total          679                       (Unspecified)
board.cache_hierarchy.ruby_system.L1Cache_Controller.IM.Data |        3666     50.18%     50.18% |         946     12.95%     63.13% |        1529     20.93%     84.05% |        1165     15.95%    100.00% (Unspecified)
board.cache_hierarchy.ruby_system.L1Cache_Controller.IM.Data::total         7306                       (Unspecified)
board.cache_hierarchy.ruby_system.L1Cache_Controller.IM.Data_all_Acks |     4008644     27.40%     27.40% |     3678485     25.14%     52.54% |     3495533     23.89%     76.44% |     3447550     23.56%    100.00% (Unspecified)
board.cache_hierarchy.ruby_system.L1Cache_Controller.IM.Data_all_Acks::total     14630212                       (Unspecified)
board.cache_hierarchy.ruby_system.L1Cache_Controller.IM.Ack |           0      0.00%      0.00% |           6     66.67%     66.67% |           2     22.22%     88.89% |           1     11.11%    100.00% (Unspecified)
board.cache_hierarchy.ruby_system.L1Cache_Controller.IM.Ack::total            9                       (Unspecified)
board.cache_hierarchy.ruby_system.L1Cache_Controller.SM.Inv |         849     15.79%     15.79% |         815     15.15%     30.94% |        1599     29.73%     60.67% |        2115     39.33%    100.00% (Unspecified)
board.cache_hierarchy.ruby_system.L1Cache_Controller.SM.Inv::total         5378                       (Unspecified)
board.cache_hierarchy.ruby_system.L1Cache_Controller.SM.Ack |      136852     31.95%     31.95% |      112492     26.27%     58.22% |       92791     21.67%     79.89% |       86137     20.11%    100.00% (Unspecified)
board.cache_hierarchy.ruby_system.L1Cache_Controller.SM.Ack::total       428272                       (Unspecified)
board.cache_hierarchy.ruby_system.L1Cache_Controller.SM.Ack_all |      115373     28.92%     28.92% |      109792     27.52%     56.43% |       90006     22.56%     78.99% |       83811     21.01%    100.00% (Unspecified)
board.cache_hierarchy.ruby_system.L1Cache_Controller.SM.Ack_all::total       398982                       (Unspecified)
board.cache_hierarchy.ruby_system.L1Cache_Controller.IS_I.Data_Exclusive |          65     33.16%     33.16% |          49     25.00%     58.16% |          38     19.39%     77.55% |          44     22.45%    100.00% (Unspecified)
board.cache_hierarchy.ruby_system.L1Cache_Controller.IS_I.Data_Exclusive::total          196                       (Unspecified)
board.cache_hierarchy.ruby_system.L1Cache_Controller.IS_I.DataS_fromL1 |           0      0.00%      0.00% |           0      0.00%      0.00% |           1    100.00%    100.00% |           0      0.00%    100.00% (Unspecified)
board.cache_hierarchy.ruby_system.L1Cache_Controller.IS_I.DataS_fromL1::total            1                       (Unspecified)
board.cache_hierarchy.ruby_system.L1Cache_Controller.IS_I.Data_all_Acks |         276      5.82%      5.82% |        1158     24.42%     30.24% |        2172     45.80%     76.04% |        1136     23.96%    100.00% (Unspecified)
board.cache_hierarchy.ruby_system.L1Cache_Controller.IS_I.Data_all_Acks::total         4742                       (Unspecified)
board.cache_hierarchy.ruby_system.L1Cache_Controller.M_I.Load |        1488     24.23%     24.23% |        1239     20.18%     44.41% |        2195     35.75%     80.16% |        1218     19.84%    100.00% (Unspecified)
board.cache_hierarchy.ruby_system.L1Cache_Controller.M_I.Load::total         6140                       (Unspecified)
board.cache_hierarchy.ruby_system.L1Cache_Controller.M_I.Ifetch |         744     37.29%     37.29% |         507     25.41%     62.71% |         239     11.98%     74.69% |         505     25.31%    100.00% (Unspecified)
board.cache_hierarchy.ruby_system.L1Cache_Controller.M_I.Ifetch::total         1995                       (Unspecified)
board.cache_hierarchy.ruby_system.L1Cache_Controller.M_I.Store |         145     27.31%     27.31% |         114     21.47%     48.78% |         146     27.50%     76.27% |         126     23.73%    100.00% (Unspecified)
board.cache_hierarchy.ruby_system.L1Cache_Controller.M_I.Store::total          531                       (Unspecified)
board.cache_hierarchy.ruby_system.L1Cache_Controller.M_I.Inv |        1125     20.58%     20.58% |        1245     22.78%     43.36% |        1290     23.60%     66.96% |        1806     33.04%    100.00% (Unspecified)
board.cache_hierarchy.ruby_system.L1Cache_Controller.M_I.Inv::total         5466                       (Unspecified)
board.cache_hierarchy.ruby_system.L1Cache_Controller.M_I.Fwd_GETX |           5     21.74%     21.74% |           3     13.04%     34.78% |           4     17.39%     52.17% |          11     47.83%    100.00% (Unspecified)
board.cache_hierarchy.ruby_system.L1Cache_Controller.M_I.Fwd_GETX::total           23                       (Unspecified)
board.cache_hierarchy.ruby_system.L1Cache_Controller.M_I.Fwd_GETS |          30     18.29%     18.29% |          34     20.73%     39.02% |          43     26.22%     65.24% |          57     34.76%    100.00% (Unspecified)
board.cache_hierarchy.ruby_system.L1Cache_Controller.M_I.Fwd_GETS::total          164                       (Unspecified)
board.cache_hierarchy.ruby_system.L1Cache_Controller.M_I.Fwd_GET_INSTR |          18     39.13%     39.13% |           5     10.87%     50.00% |           3      6.52%     56.52% |          20     43.48%    100.00% (Unspecified)
board.cache_hierarchy.ruby_system.L1Cache_Controller.M_I.Fwd_GET_INSTR::total           46                       (Unspecified)
board.cache_hierarchy.ruby_system.L1Cache_Controller.M_I.WB_Ack |    11763086     28.32%     28.32% |     9323994     22.45%     50.77% |    10565590     25.44%     76.21% |     9879208     23.79%    100.00% (Unspecified)
board.cache_hierarchy.ruby_system.L1Cache_Controller.M_I.WB_Ack::total     41531878                       (Unspecified)
board.cache_hierarchy.ruby_system.L1Cache_Controller.SINK_WB_ACK.Load |           2     33.33%     33.33% |           2     33.33%     66.67% |           1     16.67%     83.33% |           1     16.67%    100.00% (Unspecified)
board.cache_hierarchy.ruby_system.L1Cache_Controller.SINK_WB_ACK.Load::total            6                       (Unspecified)
board.cache_hierarchy.ruby_system.L1Cache_Controller.SINK_WB_ACK.WB_Ack |        1178     20.67%     20.67% |        1287     22.58%     43.25% |        1340     23.51%     66.77% |        1894     33.23%    100.00% (Unspecified)
board.cache_hierarchy.ruby_system.L1Cache_Controller.SINK_WB_ACK.WB_Ack::total         5699                       (Unspecified)
board.cache_hierarchy.ruby_system.L2Cache_Controller.L1_GET_INSTR     98834383      0.00%      0.00% (Unspecified)
board.cache_hierarchy.ruby_system.L2Cache_Controller.L1_GETS     48342636      0.00%      0.00% (Unspecified)
board.cache_hierarchy.ruby_system.L2Cache_Controller.L1_GETX     14651387      0.00%      0.00% (Unspecified)
board.cache_hierarchy.ruby_system.L2Cache_Controller.L1_UPGRADE       401639      0.00%      0.00% (Unspecified)
board.cache_hierarchy.ruby_system.L2Cache_Controller.L1_PUTX     41532316      0.00%      0.00% (Unspecified)
board.cache_hierarchy.ruby_system.L2Cache_Controller.L1_PUTX_old        10837      0.00%      0.00% (Unspecified)
board.cache_hierarchy.ruby_system.L2Cache_Controller.L2_Replacement     13005809      0.00%      0.00% (Unspecified)
board.cache_hierarchy.ruby_system.L2Cache_Controller.L2_Replacement_clean     88798087      0.00%      0.00% (Unspecified)
board.cache_hierarchy.ruby_system.L2Cache_Controller.Mem_Data    101852289      0.00%      0.00% (Unspecified)
board.cache_hierarchy.ruby_system.L2Cache_Controller.Mem_Ack    101848193      0.00%      0.00% (Unspecified)
board.cache_hierarchy.ruby_system.L2Cache_Controller.WB_Data      6659972      0.00%      0.00% (Unspecified)
board.cache_hierarchy.ruby_system.L2Cache_Controller.WB_Data_clean      1750434      0.00%      0.00% (Unspecified)
board.cache_hierarchy.ruby_system.L2Cache_Controller.Ack     22356879      0.00%      0.00% (Unspecified)
board.cache_hierarchy.ruby_system.L2Cache_Controller.Ack_all     66240262      0.00%      0.00% (Unspecified)
board.cache_hierarchy.ruby_system.L2Cache_Controller.Unblock      2215531      0.00%      0.00% (Unspecified)
board.cache_hierarchy.ruby_system.L2Cache_Controller.Exclusive_Unblock     57488064      0.00%      0.00% (Unspecified)
board.cache_hierarchy.ruby_system.L2Cache_Controller.MEM_Inv        88597      0.00%      0.00% (Unspecified)
board.cache_hierarchy.ruby_system.L2Cache_Controller.NP.L1_GET_INSTR     56525253      0.00%      0.00% (Unspecified)
board.cache_hierarchy.ruby_system.L2Cache_Controller.NP.L1_GETS     32581685      0.00%      0.00% (Unspecified)
board.cache_hierarchy.ruby_system.L2Cache_Controller.NP.L1_GETX     12745351      0.00%      0.00% (Unspecified)
board.cache_hierarchy.ruby_system.L2Cache_Controller.NP.L1_PUTX_old         5351      0.00%      0.00% (Unspecified)
board.cache_hierarchy.ruby_system.L2Cache_Controller.SS.L1_GET_INSTR     38912527      0.00%      0.00% (Unspecified)
board.cache_hierarchy.ruby_system.L2Cache_Controller.SS.L1_GETS      2493441      0.00%      0.00% (Unspecified)
board.cache_hierarchy.ruby_system.L2Cache_Controller.SS.L1_GETX         7319      0.00%      0.00% (Unspecified)
board.cache_hierarchy.ruby_system.L2Cache_Controller.SS.L1_UPGRADE       391676      0.00%      0.00% (Unspecified)
board.cache_hierarchy.ruby_system.L2Cache_Controller.SS.L1_PUTX          208      0.00%      0.00% (Unspecified)
board.cache_hierarchy.ruby_system.L2Cache_Controller.SS.L2_Replacement       155841      0.00%      0.00% (Unspecified)
board.cache_hierarchy.ruby_system.L2Cache_Controller.SS.L2_Replacement_clean     58691239      0.00%      0.00% (Unspecified)
board.cache_hierarchy.ruby_system.L2Cache_Controller.M.L1_GET_INSTR         2472      0.00%      0.00% (Unspecified)
board.cache_hierarchy.ruby_system.L2Cache_Controller.M.L1_GETS     10381103      0.00%      0.00% (Unspecified)
board.cache_hierarchy.ruby_system.L2Cache_Controller.M.L1_GETX      1732745      0.00%      0.00% (Unspecified)
board.cache_hierarchy.ruby_system.L2Cache_Controller.M.L2_Replacement     11989613      0.00%      0.00% (Unspecified)
board.cache_hierarchy.ruby_system.L2Cache_Controller.M.L2_Replacement_clean     17386927      0.00%      0.00% (Unspecified)
board.cache_hierarchy.ruby_system.L2Cache_Controller.M.MEM_Inv        36516      0.00%      0.00% (Unspecified)
board.cache_hierarchy.ruby_system.L2Cache_Controller.MT.L1_GET_INSTR          170      0.00%      0.00% (Unspecified)
board.cache_hierarchy.ruby_system.L2Cache_Controller.MT.L1_GETS      2215361      0.00%      0.00% (Unspecified)
board.cache_hierarchy.ruby_system.L2Cache_Controller.MT.L1_GETX       152103      0.00%      0.00% (Unspecified)
board.cache_hierarchy.ruby_system.L2Cache_Controller.MT.L1_PUTX     41531878      0.00%      0.00% (Unspecified)
board.cache_hierarchy.ruby_system.L2Cache_Controller.MT.L1_PUTX_old           23      0.00%      0.00% (Unspecified)
board.cache_hierarchy.ruby_system.L2Cache_Controller.MT.L2_Replacement       860355      0.00%      0.00% (Unspecified)
board.cache_hierarchy.ruby_system.L2Cache_Controller.MT.L2_Replacement_clean     12719921      0.00%      0.00% (Unspecified)
board.cache_hierarchy.ruby_system.L2Cache_Controller.MT.MEM_Inv         7781      0.00%      0.00% (Unspecified)
board.cache_hierarchy.ruby_system.L2Cache_Controller.M_I.L1_GET_INSTR         6285      0.00%      0.00% (Unspecified)
board.cache_hierarchy.ruby_system.L2Cache_Controller.M_I.L1_GETS        22972      0.00%      0.00% (Unspecified)
board.cache_hierarchy.ruby_system.L2Cache_Controller.M_I.L1_GETX         9102      0.00%      0.00% (Unspecified)
board.cache_hierarchy.ruby_system.L2Cache_Controller.M_I.L1_PUTX_old          115      0.00%      0.00% (Unspecified)
board.cache_hierarchy.ruby_system.L2Cache_Controller.M_I.Mem_Ack    101848193      0.00%      0.00% (Unspecified)
board.cache_hierarchy.ruby_system.L2Cache_Controller.M_I.MEM_Inv        36518      0.00%      0.00% (Unspecified)
board.cache_hierarchy.ruby_system.L2Cache_Controller.MT_I.L1_GETS            2      0.00%      0.00% (Unspecified)
board.cache_hierarchy.ruby_system.L2Cache_Controller.MT_I.L1_GETX            2      0.00%      0.00% (Unspecified)
board.cache_hierarchy.ruby_system.L2Cache_Controller.MT_I.L1_PUTX_old          371      0.00%      0.00% (Unspecified)
board.cache_hierarchy.ruby_system.L2Cache_Controller.MT_I.WB_Data       689091      0.00%      0.00% (Unspecified)
board.cache_hierarchy.ruby_system.L2Cache_Controller.MT_I.WB_Data_clean          103      0.00%      0.00% (Unspecified)
board.cache_hierarchy.ruby_system.L2Cache_Controller.MT_I.Ack_all       178942      0.00%      0.00% (Unspecified)
board.cache_hierarchy.ruby_system.L2Cache_Controller.MT_I.MEM_Inv         7781      0.00%      0.00% (Unspecified)
board.cache_hierarchy.ruby_system.L2Cache_Controller.MCT_I.L1_GETS          169      0.00%      0.00% (Unspecified)
board.cache_hierarchy.ruby_system.L2Cache_Controller.MCT_I.L1_GETX           12      0.00%      0.00% (Unspecified)
board.cache_hierarchy.ruby_system.L2Cache_Controller.MCT_I.L1_PUTX_old         4977      0.00%      0.00% (Unspecified)
board.cache_hierarchy.ruby_system.L2Cache_Controller.MCT_I.WB_Data      5502810      0.00%      0.00% (Unspecified)
board.cache_hierarchy.ruby_system.L2Cache_Controller.MCT_I.WB_Data_clean         2871      0.00%      0.00% (Unspecified)
board.cache_hierarchy.ruby_system.L2Cache_Controller.MCT_I.Ack_all      7214240      0.00%      0.00% (Unspecified)
board.cache_hierarchy.ruby_system.L2Cache_Controller.MCT_I.MEM_Inv            1      0.00%      0.00% (Unspecified)
board.cache_hierarchy.ruby_system.L2Cache_Controller.I_I.L1_GET_INSTR         1285      0.00%      0.00% (Unspecified)
board.cache_hierarchy.ruby_system.L2Cache_Controller.I_I.L1_GETS          224      0.00%      0.00% (Unspecified)
board.cache_hierarchy.ruby_system.L2Cache_Controller.I_I.L1_GETX            1      0.00%      0.00% (Unspecified)
board.cache_hierarchy.ruby_system.L2Cache_Controller.I_I.Ack     22170075      0.00%      0.00% (Unspecified)
board.cache_hierarchy.ruby_system.L2Cache_Controller.I_I.Ack_all     58691239      0.00%      0.00% (Unspecified)
board.cache_hierarchy.ruby_system.L2Cache_Controller.S_I.L1_GETS            5      0.00%      0.00% (Unspecified)
board.cache_hierarchy.ruby_system.L2Cache_Controller.S_I.L1_GETX            1      0.00%      0.00% (Unspecified)
board.cache_hierarchy.ruby_system.L2Cache_Controller.S_I.Ack       186804      0.00%      0.00% (Unspecified)
board.cache_hierarchy.ruby_system.L2Cache_Controller.S_I.Ack_all       155841      0.00%      0.00% (Unspecified)
board.cache_hierarchy.ruby_system.L2Cache_Controller.ISS.L1_GET_INSTR            1      0.00%      0.00% (Unspecified)
board.cache_hierarchy.ruby_system.L2Cache_Controller.ISS.L1_GETS       503917      0.00%      0.00% (Unspecified)
board.cache_hierarchy.ruby_system.L2Cache_Controller.ISS.L1_GETX          105      0.00%      0.00% (Unspecified)
board.cache_hierarchy.ruby_system.L2Cache_Controller.ISS.Mem_Data     32077767      0.00%      0.00% (Unspecified)
board.cache_hierarchy.ruby_system.L2Cache_Controller.IS.L1_GET_INSTR      3386387      0.00%      0.00% (Unspecified)
board.cache_hierarchy.ruby_system.L2Cache_Controller.IS.L1_GETS        65894      0.00%      0.00% (Unspecified)
board.cache_hierarchy.ruby_system.L2Cache_Controller.IS.L1_GETX            3      0.00%      0.00% (Unspecified)
board.cache_hierarchy.ruby_system.L2Cache_Controller.IS.Mem_Data     57029171      0.00%      0.00% (Unspecified)
board.cache_hierarchy.ruby_system.L2Cache_Controller.IM.L1_GETS           68      0.00%      0.00% (Unspecified)
board.cache_hierarchy.ruby_system.L2Cache_Controller.IM.L1_GETX         1318      0.00%      0.00% (Unspecified)
board.cache_hierarchy.ruby_system.L2Cache_Controller.IM.Mem_Data     12745351      0.00%      0.00% (Unspecified)
board.cache_hierarchy.ruby_system.L2Cache_Controller.SS_MB.L1_GETS        29430      0.00%      0.00% (Unspecified)
board.cache_hierarchy.ruby_system.L2Cache_Controller.SS_MB.L1_GETX         1053      0.00%      0.00% (Unspecified)
board.cache_hierarchy.ruby_system.L2Cache_Controller.SS_MB.L1_UPGRADE         5377      0.00%      0.00% (Unspecified)
board.cache_hierarchy.ruby_system.L2Cache_Controller.SS_MB.Exclusive_Unblock       398995      0.00%      0.00% (Unspecified)
board.cache_hierarchy.ruby_system.L2Cache_Controller.MT_MB.L1_GET_INSTR            1      0.00%      0.00% (Unspecified)
board.cache_hierarchy.ruby_system.L2Cache_Controller.MT_MB.L1_GETS        15434      0.00%      0.00% (Unspecified)
board.cache_hierarchy.ruby_system.L2Cache_Controller.MT_MB.L1_GETX         2178      0.00%      0.00% (Unspecified)
board.cache_hierarchy.ruby_system.L2Cache_Controller.MT_MB.L1_PUTX           23      0.00%      0.00% (Unspecified)
board.cache_hierarchy.ruby_system.L2Cache_Controller.MT_MB.Exclusive_Unblock     57089069      0.00%      0.00% (Unspecified)
board.cache_hierarchy.ruby_system.L2Cache_Controller.MT_IIB.L1_GET_INSTR            2      0.00%      0.00% (Unspecified)
board.cache_hierarchy.ruby_system.L2Cache_Controller.MT_IIB.L1_GETS        31419      0.00%      0.00% (Unspecified)
board.cache_hierarchy.ruby_system.L2Cache_Controller.MT_IIB.L1_GETX           78      0.00%      0.00% (Unspecified)
board.cache_hierarchy.ruby_system.L2Cache_Controller.MT_IIB.L1_UPGRADE            1      0.00%      0.00% (Unspecified)
board.cache_hierarchy.ruby_system.L2Cache_Controller.MT_IIB.L1_PUTX          205      0.00%      0.00% (Unspecified)
board.cache_hierarchy.ruby_system.L2Cache_Controller.MT_IIB.WB_Data       460551      0.00%      0.00% (Unspecified)
board.cache_hierarchy.ruby_system.L2Cache_Controller.MT_IIB.WB_Data_clean      1738781      0.00%      0.00% (Unspecified)
board.cache_hierarchy.ruby_system.L2Cache_Controller.MT_IIB.Unblock        16199      0.00%      0.00% (Unspecified)
board.cache_hierarchy.ruby_system.L2Cache_Controller.MT_IB.L1_GETS            1      0.00%      0.00% (Unspecified)
board.cache_hierarchy.ruby_system.L2Cache_Controller.MT_IB.WB_Data         7520      0.00%      0.00% (Unspecified)
board.cache_hierarchy.ruby_system.L2Cache_Controller.MT_IB.WB_Data_clean         8679      0.00%      0.00% (Unspecified)
board.cache_hierarchy.ruby_system.L2Cache_Controller.MT_SB.L1_GETS         1511      0.00%      0.00% (Unspecified)
board.cache_hierarchy.ruby_system.L2Cache_Controller.MT_SB.L1_GETX           16      0.00%      0.00% (Unspecified)
board.cache_hierarchy.ruby_system.L2Cache_Controller.MT_SB.L1_UPGRADE         4585      0.00%      0.00% (Unspecified)
board.cache_hierarchy.ruby_system.L2Cache_Controller.MT_SB.L1_PUTX            2      0.00%      0.00% (Unspecified)
board.cache_hierarchy.ruby_system.L2Cache_Controller.MT_SB.Unblock      2199332      0.00%      0.00% (Unspecified)
board.cache_hierarchy.ruby_system.RequestType.LD.latency_hist_seqr::bucket_size         1024                       (Unspecified)
board.cache_hierarchy.ruby_system.RequestType.LD.latency_hist_seqr::max_bucket        10239                       (Unspecified)
board.cache_hierarchy.ruby_system.RequestType.LD.latency_hist_seqr::samples    972018301                       (Unspecified)
board.cache_hierarchy.ruby_system.RequestType.LD.latency_hist_seqr::mean     9.522039                       (Unspecified)
board.cache_hierarchy.ruby_system.RequestType.LD.latency_hist_seqr::gmean     1.255781                       (Unspecified)
board.cache_hierarchy.ruby_system.RequestType.LD.latency_hist_seqr::stdev    49.345544                       (Unspecified)
board.cache_hierarchy.ruby_system.RequestType.LD.latency_hist_seqr |   971883466     99.99%     99.99% |      133555      0.01%    100.00% |        1088      0.00%    100.00% |         144      0.00%    100.00% |          35      0.00%    100.00% |          10      0.00%    100.00% |           3      0.00%    100.00% |           0      0.00%    100.00% |           0      0.00%    100.00% |           0      0.00%    100.00% (Unspecified)
board.cache_hierarchy.ruby_system.RequestType.LD.latency_hist_seqr::total    972018301                       (Unspecified)
board.cache_hierarchy.ruby_system.RequestType.LD.hit_latency_hist_seqr::bucket_size            1                       (Unspecified)
board.cache_hierarchy.ruby_system.RequestType.LD.hit_latency_hist_seqr::max_bucket            9                       (Unspecified)
board.cache_hierarchy.ruby_system.RequestType.LD.hit_latency_hist_seqr::samples    923799782                       (Unspecified)
board.cache_hierarchy.ruby_system.RequestType.LD.hit_latency_hist_seqr::mean     1.000844                       (Unspecified)
board.cache_hierarchy.ruby_system.RequestType.LD.hit_latency_hist_seqr::gmean     1.000585                       (Unspecified)
board.cache_hierarchy.ruby_system.RequestType.LD.hit_latency_hist_seqr::stdev     0.029068                       (Unspecified)
board.cache_hierarchy.ruby_system.RequestType.LD.hit_latency_hist_seqr |           0      0.00%      0.00% |   923020155     99.92%     99.92% |      779116      0.08%    100.00% |         502      0.00%    100.00% |           9      0.00%    100.00% |           0      0.00%    100.00% |           0      0.00%    100.00% |           0      0.00%    100.00% |           0      0.00%    100.00% |           0      0.00%    100.00% (Unspecified)
board.cache_hierarchy.ruby_system.RequestType.LD.hit_latency_hist_seqr::total    923799782                       (Unspecified)
board.cache_hierarchy.ruby_system.RequestType.LD.miss_latency_hist_seqr::bucket_size         1024                       (Unspecified)
board.cache_hierarchy.ruby_system.RequestType.LD.miss_latency_hist_seqr::max_bucket        10239                       (Unspecified)
board.cache_hierarchy.ruby_system.RequestType.LD.miss_latency_hist_seqr::samples     48218519                       (Unspecified)
board.cache_hierarchy.ruby_system.RequestType.LD.miss_latency_hist_seqr::mean   172.776276                       (Unspecified)
board.cache_hierarchy.ruby_system.RequestType.LD.miss_latency_hist_seqr::gmean    97.521453                       (Unspecified)
board.cache_hierarchy.ruby_system.RequestType.LD.miss_latency_hist_seqr::stdev   145.061309                       (Unspecified)
board.cache_hierarchy.ruby_system.RequestType.LD.miss_latency_hist_seqr |    48083684     99.72%     99.72% |      133555      0.28%    100.00% |        1088      0.00%    100.00% |         144      0.00%    100.00% |          35      0.00%    100.00% |          10      0.00%    100.00% |           3      0.00%    100.00% |           0      0.00%    100.00% |           0      0.00%    100.00% |           0      0.00%    100.00% (Unspecified)
board.cache_hierarchy.ruby_system.RequestType.LD.miss_latency_hist_seqr::total     48218519                       (Unspecified)
board.cache_hierarchy.ruby_system.RequestType.ST.latency_hist_seqr::bucket_size          512                       (Unspecified)
board.cache_hierarchy.ruby_system.RequestType.ST.latency_hist_seqr::max_bucket         5119                       (Unspecified)
board.cache_hierarchy.ruby_system.RequestType.ST.latency_hist_seqr::samples    572432782                       (Unspecified)
board.cache_hierarchy.ruby_system.RequestType.ST.latency_hist_seqr::mean     5.526912                       (Unspecified)
board.cache_hierarchy.ruby_system.RequestType.ST.latency_hist_seqr::gmean     1.136081                       (Unspecified)
board.cache_hierarchy.ruby_system.RequestType.ST.latency_hist_seqr::stdev    35.404435                       (Unspecified)
board.cache_hierarchy.ruby_system.RequestType.ST.latency_hist_seqr |   572128076     99.95%     99.95% |      264996      0.05%     99.99% |       38349      0.01%    100.00% |         939      0.00%    100.00% |         268      0.00%    100.00% |         102      0.00%    100.00% |          39      0.00%    100.00% |           9      0.00%    100.00% |           4      0.00%    100.00% |           0      0.00%    100.00% (Unspecified)
board.cache_hierarchy.ruby_system.RequestType.ST.latency_hist_seqr::total    572432782                       (Unspecified)
board.cache_hierarchy.ruby_system.RequestType.ST.hit_latency_hist_seqr::bucket_size          512                       (Unspecified)
board.cache_hierarchy.ruby_system.RequestType.ST.hit_latency_hist_seqr::max_bucket         5119                       (Unspecified)
board.cache_hierarchy.ruby_system.RequestType.ST.hit_latency_hist_seqr::samples    559046118                       (Unspecified)
board.cache_hierarchy.ruby_system.RequestType.ST.hit_latency_hist_seqr::mean     1.050244                       (Unspecified)
board.cache_hierarchy.ruby_system.RequestType.ST.hit_latency_hist_seqr::gmean     1.012019                       (Unspecified)
board.cache_hierarchy.ruby_system.RequestType.ST.hit_latency_hist_seqr::stdev     3.054928                       (Unspecified)
board.cache_hierarchy.ruby_system.RequestType.ST.hit_latency_hist_seqr |   559044112    100.00%    100.00% |        1755      0.00%    100.00% |         247      0.00%    100.00% |           2      0.00%    100.00% |           1      0.00%    100.00% |           0      0.00%    100.00% |           1      0.00%    100.00% |           0      0.00%    100.00% |           0      0.00%    100.00% |           0      0.00%    100.00% (Unspecified)
board.cache_hierarchy.ruby_system.RequestType.ST.hit_latency_hist_seqr::total    559046118                       (Unspecified)
board.cache_hierarchy.ruby_system.RequestType.ST.miss_latency_hist_seqr::bucket_size          512                       (Unspecified)
board.cache_hierarchy.ruby_system.RequestType.ST.miss_latency_hist_seqr::max_bucket         5119                       (Unspecified)
board.cache_hierarchy.ruby_system.RequestType.ST.miss_latency_hist_seqr::samples     13386664                       (Unspecified)
board.cache_hierarchy.ruby_system.RequestType.ST.miss_latency_hist_seqr::mean   192.478929                       (Unspecified)
board.cache_hierarchy.ruby_system.RequestType.ST.miss_latency_hist_seqr::gmean   142.137661                       (Unspecified)
board.cache_hierarchy.ruby_system.RequestType.ST.miss_latency_hist_seqr::stdev   131.994734                       (Unspecified)
board.cache_hierarchy.ruby_system.RequestType.ST.miss_latency_hist_seqr |    13083964     97.74%     97.74% |      263241      1.97%     99.71% |       38102      0.28%     99.99% |         937      0.01%    100.00% |         267      0.00%    100.00% |         102      0.00%    100.00% |          38      0.00%    100.00% |           9      0.00%    100.00% |           4      0.00%    100.00% |           0      0.00%    100.00% (Unspecified)
board.cache_hierarchy.ruby_system.RequestType.ST.miss_latency_hist_seqr::total     13386664                       (Unspecified)
board.cache_hierarchy.ruby_system.RequestType.IFETCH.latency_hist_seqr::bucket_size         1024                       (Unspecified)
board.cache_hierarchy.ruby_system.RequestType.IFETCH.latency_hist_seqr::max_bucket        10239                       (Unspecified)
board.cache_hierarchy.ruby_system.RequestType.IFETCH.latency_hist_seqr::samples    683756428                       (Unspecified)
board.cache_hierarchy.ruby_system.RequestType.IFETCH.latency_hist_seqr::mean    20.726245                       (Unspecified)
board.cache_hierarchy.ruby_system.RequestType.IFETCH.latency_hist_seqr::gmean     1.843556                       (Unspecified)
board.cache_hierarchy.ruby_system.RequestType.IFETCH.latency_hist_seqr::stdev    70.253202                       (Unspecified)
board.cache_hierarchy.ruby_system.RequestType.IFETCH.latency_hist_seqr |   683561984     99.97%     99.97% |      192257      0.03%    100.00% |        1963      0.00%    100.00% |         176      0.00%    100.00% |          38      0.00%    100.00% |           7      0.00%    100.00% |           2      0.00%    100.00% |           1      0.00%    100.00% |           0      0.00%    100.00% |           0      0.00%    100.00% (Unspecified)
board.cache_hierarchy.ruby_system.RequestType.IFETCH.latency_hist_seqr::total    683756428                       (Unspecified)
board.cache_hierarchy.ruby_system.RequestType.IFETCH.hit_latency_hist_seqr::bucket_size            1                       (Unspecified)
board.cache_hierarchy.ruby_system.RequestType.IFETCH.hit_latency_hist_seqr::max_bucket            9                       (Unspecified)
board.cache_hierarchy.ruby_system.RequestType.IFETCH.hit_latency_hist_seqr::samples    584962532                       (Unspecified)
board.cache_hierarchy.ruby_system.RequestType.IFETCH.hit_latency_hist_seqr::mean     1.000002                       (Unspecified)
board.cache_hierarchy.ruby_system.RequestType.IFETCH.hit_latency_hist_seqr::gmean     1.000001                       (Unspecified)
board.cache_hierarchy.ruby_system.RequestType.IFETCH.hit_latency_hist_seqr::stdev     0.001342                       (Unspecified)
board.cache_hierarchy.ruby_system.RequestType.IFETCH.hit_latency_hist_seqr |           0      0.00%      0.00% |   584961575    100.00%    100.00% |         925      0.00%    100.00% |          32      0.00%    100.00% |           0      0.00%    100.00% |           0      0.00%    100.00% |           0      0.00%    100.00% |           0      0.00%    100.00% |           0      0.00%    100.00% |           0      0.00%    100.00% (Unspecified)
board.cache_hierarchy.ruby_system.RequestType.IFETCH.hit_latency_hist_seqr::total    584962532                       (Unspecified)
board.cache_hierarchy.ruby_system.RequestType.IFETCH.miss_latency_hist_seqr::bucket_size         1024                       (Unspecified)
board.cache_hierarchy.ruby_system.RequestType.IFETCH.miss_latency_hist_seqr::max_bucket        10239                       (Unspecified)
board.cache_hierarchy.ruby_system.RequestType.IFETCH.miss_latency_hist_seqr::samples     98793896                       (Unspecified)
board.cache_hierarchy.ruby_system.RequestType.IFETCH.miss_latency_hist_seqr::mean   137.526102                       (Unspecified)
board.cache_hierarchy.ruby_system.RequestType.IFETCH.miss_latency_hist_seqr::gmean    68.962808                       (Unspecified)
board.cache_hierarchy.ruby_system.RequestType.IFETCH.miss_latency_hist_seqr::stdev   134.954238                       (Unspecified)
board.cache_hierarchy.ruby_system.RequestType.IFETCH.miss_latency_hist_seqr |    98599452     99.80%     99.80% |      192257      0.19%    100.00% |        1963      0.00%    100.00% |         176      0.00%    100.00% |          38      0.00%    100.00% |           7      0.00%    100.00% |           2      0.00%    100.00% |           1      0.00%    100.00% |           0      0.00%    100.00% |           0      0.00%    100.00% (Unspecified)
board.cache_hierarchy.ruby_system.RequestType.IFETCH.miss_latency_hist_seqr::total     98793896                       (Unspecified)
board.cache_hierarchy.ruby_system.RequestType.RMW_Read.latency_hist_seqr::bucket_size         1024                       (Unspecified)
board.cache_hierarchy.ruby_system.RequestType.RMW_Read.latency_hist_seqr::max_bucket        10239                       (Unspecified)
board.cache_hierarchy.ruby_system.RequestType.RMW_Read.latency_hist_seqr::samples     12159978                       (Unspecified)
board.cache_hierarchy.ruby_system.RequestType.RMW_Read.latency_hist_seqr::mean    19.243385                       (Unspecified)
board.cache_hierarchy.ruby_system.RequestType.RMW_Read.latency_hist_seqr::gmean     1.656529                       (Unspecified)
board.cache_hierarchy.ruby_system.RequestType.RMW_Read.latency_hist_seqr::stdev    72.561209                       (Unspecified)
board.cache_hierarchy.ruby_system.RequestType.RMW_Read.latency_hist_seqr |    12155851     99.97%     99.97% |        4077      0.03%    100.00% |          41      0.00%    100.00% |           8      0.00%    100.00% |           0      0.00%    100.00% |           1      0.00%    100.00% |           0      0.00%    100.00% |           0      0.00%    100.00% |           0      0.00%    100.00% |           0      0.00%    100.00% (Unspecified)
board.cache_hierarchy.ruby_system.RequestType.RMW_Read.latency_hist_seqr::total     12159978                       (Unspecified)
board.cache_hierarchy.ruby_system.RequestType.RMW_Read.hit_latency_hist_seqr::bucket_size          256                       (Unspecified)
board.cache_hierarchy.ruby_system.RequestType.RMW_Read.hit_latency_hist_seqr::max_bucket         2559                       (Unspecified)
board.cache_hierarchy.ruby_system.RequestType.RMW_Read.hit_latency_hist_seqr::samples     11179861                       (Unspecified)
board.cache_hierarchy.ruby_system.RequestType.RMW_Read.hit_latency_hist_seqr::mean     3.059359                       (Unspecified)
board.cache_hierarchy.ruby_system.RequestType.RMW_Read.hit_latency_hist_seqr::gmean     1.127717                       (Unspecified)
board.cache_hierarchy.ruby_system.RequestType.RMW_Read.hit_latency_hist_seqr::stdev    23.825599                       (Unspecified)
board.cache_hierarchy.ruby_system.RequestType.RMW_Read.hit_latency_hist_seqr |    11157422     99.80%     99.80% |       19747      0.18%     99.98% |        1555      0.01%     99.99% |         748      0.01%    100.00% |         320      0.00%    100.00% |          58      0.00%    100.00% |           4      0.00%    100.00% |           4      0.00%    100.00% |           2      0.00%    100.00% |           1      0.00%    100.00% (Unspecified)
board.cache_hierarchy.ruby_system.RequestType.RMW_Read.hit_latency_hist_seqr::total     11179861                       (Unspecified)
board.cache_hierarchy.ruby_system.RequestType.RMW_Read.miss_latency_hist_seqr::bucket_size         1024                       (Unspecified)
board.cache_hierarchy.ruby_system.RequestType.RMW_Read.miss_latency_hist_seqr::max_bucket        10239                       (Unspecified)
board.cache_hierarchy.ruby_system.RequestType.RMW_Read.miss_latency_hist_seqr::samples       980117                       (Unspecified)
board.cache_hierarchy.ruby_system.RequestType.RMW_Read.miss_latency_hist_seqr::mean   203.849066                       (Unspecified)
board.cache_hierarchy.ruby_system.RequestType.RMW_Read.miss_latency_hist_seqr::gmean   133.075423                       (Unspecified)
board.cache_hierarchy.ruby_system.RequestType.RMW_Read.miss_latency_hist_seqr::stdev   147.582745                       (Unspecified)
board.cache_hierarchy.ruby_system.RequestType.RMW_Read.miss_latency_hist_seqr |      976379     99.62%     99.62% |        3691      0.38%    100.00% |          38      0.00%    100.00% |           8      0.00%    100.00% |           0      0.00%    100.00% |           1      0.00%    100.00% |           0      0.00%    100.00% |           0      0.00%    100.00% |           0      0.00%    100.00% |           0      0.00%    100.00% (Unspecified)
board.cache_hierarchy.ruby_system.RequestType.RMW_Read.miss_latency_hist_seqr::total       980117                       (Unspecified)
board.cache_hierarchy.ruby_system.RequestType.Locked_RMW_Read.latency_hist_seqr::bucket_size          512                       (Unspecified)
board.cache_hierarchy.ruby_system.RequestType.Locked_RMW_Read.latency_hist_seqr::max_bucket         5119                       (Unspecified)
board.cache_hierarchy.ruby_system.RequestType.Locked_RMW_Read.latency_hist_seqr::samples      4116202                       (Unspecified)
board.cache_hierarchy.ruby_system.RequestType.Locked_RMW_Read.latency_hist_seqr::mean    22.698926                       (Unspecified)
board.cache_hierarchy.ruby_system.RequestType.Locked_RMW_Read.latency_hist_seqr::gmean     1.949900                       (Unspecified)
board.cache_hierarchy.ruby_system.RequestType.Locked_RMW_Read.latency_hist_seqr::stdev    77.228981                       (Unspecified)
board.cache_hierarchy.ruby_system.RequestType.Locked_RMW_Read.latency_hist_seqr |     4102980     99.68%     99.68% |       11759      0.29%     99.96% |        1388      0.03%    100.00% |          52      0.00%    100.00% |           8      0.00%    100.00% |          11      0.00%    100.00% |           1      0.00%    100.00% |           2      0.00%    100.00% |           0      0.00%    100.00% |           1      0.00%    100.00% (Unspecified)
board.cache_hierarchy.ruby_system.RequestType.Locked_RMW_Read.latency_hist_seqr::total      4116202                       (Unspecified)
board.cache_hierarchy.ruby_system.RequestType.Locked_RMW_Read.hit_latency_hist_seqr::bucket_size          512                       (Unspecified)
board.cache_hierarchy.ruby_system.RequestType.Locked_RMW_Read.hit_latency_hist_seqr::max_bucket         5119                       (Unspecified)
board.cache_hierarchy.ruby_system.RequestType.Locked_RMW_Read.hit_latency_hist_seqr::samples      3466086                       (Unspecified)
board.cache_hierarchy.ruby_system.RequestType.Locked_RMW_Read.hit_latency_hist_seqr::mean     1.206813                       (Unspecified)
board.cache_hierarchy.ruby_system.RequestType.Locked_RMW_Read.hit_latency_hist_seqr::gmean     1.005418                       (Unspecified)
board.cache_hierarchy.ruby_system.RequestType.Locked_RMW_Read.hit_latency_hist_seqr::stdev     7.824932                       (Unspecified)
board.cache_hierarchy.ruby_system.RequestType.Locked_RMW_Read.hit_latency_hist_seqr |     3465986    100.00%    100.00% |          85      0.00%    100.00% |          14      0.00%    100.00% |           0      0.00%    100.00% |           0      0.00%    100.00% |           1      0.00%    100.00% |           0      0.00%    100.00% |           0      0.00%    100.00% |           0      0.00%    100.00% |           0      0.00%    100.00% (Unspecified)
board.cache_hierarchy.ruby_system.RequestType.Locked_RMW_Read.hit_latency_hist_seqr::total      3466086                       (Unspecified)
board.cache_hierarchy.ruby_system.RequestType.Locked_RMW_Read.miss_latency_hist_seqr::bucket_size          512                       (Unspecified)
board.cache_hierarchy.ruby_system.RequestType.Locked_RMW_Read.miss_latency_hist_seqr::max_bucket         5119                       (Unspecified)
board.cache_hierarchy.ruby_system.RequestType.Locked_RMW_Read.miss_latency_hist_seqr::samples       650116                       (Unspecified)
board.cache_hierarchy.ruby_system.RequestType.Locked_RMW_Read.miss_latency_hist_seqr::mean   137.283880                       (Unspecified)
board.cache_hierarchy.ruby_system.RequestType.Locked_RMW_Read.miss_latency_hist_seqr::gmean    66.634263                       (Unspecified)
board.cache_hierarchy.ruby_system.RequestType.Locked_RMW_Read.miss_latency_hist_seqr::stdev   147.797801                       (Unspecified)
board.cache_hierarchy.ruby_system.RequestType.Locked_RMW_Read.miss_latency_hist_seqr |      636994     97.98%     97.98% |       11674      1.80%     99.78% |        1374      0.21%     99.99% |          52      0.01%    100.00% |           8      0.00%    100.00% |          10      0.00%    100.00% |           1      0.00%    100.00% |           2      0.00%    100.00% |           0      0.00%    100.00% |           1      0.00%    100.00% (Unspecified)
board.cache_hierarchy.ruby_system.RequestType.Locked_RMW_Read.miss_latency_hist_seqr::total       650116                       (Unspecified)
board.cache_hierarchy.ruby_system.RequestType.Locked_RMW_Write.latency_hist_seqr::bucket_size            1                       (Unspecified)
board.cache_hierarchy.ruby_system.RequestType.Locked_RMW_Write.latency_hist_seqr::max_bucket            9                       (Unspecified)
board.cache_hierarchy.ruby_system.RequestType.Locked_RMW_Write.latency_hist_seqr::samples      4116238                       (Unspecified)
board.cache_hierarchy.ruby_system.RequestType.Locked_RMW_Write.latency_hist_seqr::mean            1                       (Unspecified)
board.cache_hierarchy.ruby_system.RequestType.Locked_RMW_Write.latency_hist_seqr::gmean            1                       (Unspecified)
board.cache_hierarchy.ruby_system.RequestType.Locked_RMW_Write.latency_hist_seqr |           0      0.00%      0.00% |     4116238    100.00%    100.00% |           0      0.00%    100.00% |           0      0.00%    100.00% |           0      0.00%    100.00% |           0      0.00%    100.00% |           0      0.00%    100.00% |           0      0.00%    100.00% |           0      0.00%    100.00% |           0      0.00%    100.00% (Unspecified)
board.cache_hierarchy.ruby_system.RequestType.Locked_RMW_Write.latency_hist_seqr::total      4116238                       (Unspecified)
board.cache_hierarchy.ruby_system.RequestType.Locked_RMW_Write.hit_latency_hist_seqr::bucket_size            1                       (Unspecified)
board.cache_hierarchy.ruby_system.RequestType.Locked_RMW_Write.hit_latency_hist_seqr::max_bucket            9                       (Unspecified)
board.cache_hierarchy.ruby_system.RequestType.Locked_RMW_Write.hit_latency_hist_seqr::samples      4116238                       (Unspecified)
board.cache_hierarchy.ruby_system.RequestType.Locked_RMW_Write.hit_latency_hist_seqr::mean            1                       (Unspecified)
board.cache_hierarchy.ruby_system.RequestType.Locked_RMW_Write.hit_latency_hist_seqr::gmean            1                       (Unspecified)
board.cache_hierarchy.ruby_system.RequestType.Locked_RMW_Write.hit_latency_hist_seqr |           0      0.00%      0.00% |     4116238    100.00%    100.00% |           0      0.00%    100.00% |           0      0.00%    100.00% |           0      0.00%    100.00% |           0      0.00%    100.00% |           0      0.00%    100.00% |           0      0.00%    100.00% |           0      0.00%    100.00% |           0      0.00%    100.00% (Unspecified)
board.cache_hierarchy.ruby_system.RequestType.Locked_RMW_Write.hit_latency_hist_seqr::total      4116238                       (Unspecified)
board.cache_hierarchy.ruby_system.directory_controllers.power_state.pwrStateResidencyTicks::UNDEFINED 30439557012295                       # Cumulative time (in ticks) in various power states (Tick)
board.cache_hierarchy.ruby_system.directory_controllers.requestToDir.m_buf_msgs     0.001127                       # Average number of messages in buffer (Unspecified)
board.cache_hierarchy.ruby_system.directory_controllers.requestToDir.m_stall_time   221.975195                       # Average number of cycles messages are stalled in this MB (Unspecified)
board.cache_hierarchy.ruby_system.directory_controllers.requestToMemory.m_buf_msgs     0.005707                       # Average number of messages in buffer (Unspecified)
board.cache_hierarchy.ruby_system.directory_controllers.requestToMemory.m_stall_time    76.407445                       # Average number of cycles messages are stalled in this MB (Unspecified)
board.cache_hierarchy.ruby_system.directory_controllers.responseFromDir.m_buf_msgs     0.002244                       # Average number of messages in buffer (Unspecified)
board.cache_hierarchy.ruby_system.directory_controllers.responseFromDir.m_stall_time    33.732113                       # Average number of cycles messages are stalled in this MB (Unspecified)
board.cache_hierarchy.ruby_system.directory_controllers.responseFromMemory.m_buf_msgs     0.001988                       # Average number of messages in buffer (Unspecified)
board.cache_hierarchy.ruby_system.directory_controllers.responseFromMemory.m_stall_time    33.729512                       # Average number of cycles messages are stalled in this MB (Unspecified)
board.cache_hierarchy.ruby_system.directory_controllers.responseToDir.m_buf_msgs     0.001114                       # Average number of messages in buffer (Unspecified)
board.cache_hierarchy.ruby_system.directory_controllers.responseToDir.m_stall_time   203.191439                       # Average number of cycles messages are stalled in this MB (Unspecified)
board.cache_hierarchy.ruby_system.dma_controllers0.dma_sequencer.power_state.pwrStateResidencyTicks::UNDEFINED 30439557012295                       # Cumulative time (in ticks) in various power states (Tick)
board.cache_hierarchy.ruby_system.dma_controllers0.mandatoryQueue.m_buf_msgs     0.000013                       # Average number of messages in buffer (Unspecified)
board.cache_hierarchy.ruby_system.dma_controllers0.mandatoryQueue.m_stall_time    33.714915                       # Average number of cycles messages are stalled in this MB (Unspecified)
board.cache_hierarchy.ruby_system.dma_controllers0.power_state.pwrStateResidencyTicks::UNDEFINED 30439557012295                       # Cumulative time (in ticks) in various power states (Tick)
board.cache_hierarchy.ruby_system.dma_controllers0.requestToDir.m_buf_msgs     0.000076                       # Average number of messages in buffer (Unspecified)
board.cache_hierarchy.ruby_system.dma_controllers0.requestToDir.m_stall_time   202.289488                       # Average number of cycles messages are stalled in this MB (Unspecified)
board.cache_hierarchy.ruby_system.dma_controllers0.responseFromDir.m_buf_msgs     0.000013                       # Average number of messages in buffer (Unspecified)
board.cache_hierarchy.ruby_system.dma_controllers0.responseFromDir.m_stall_time   168.721869                       # Average number of cycles messages are stalled in this MB (Unspecified)
board.cache_hierarchy.ruby_system.dma_controllers1.dma_sequencer.power_state.pwrStateResidencyTicks::UNDEFINED 30439557012295                       # Cumulative time (in ticks) in various power states (Tick)
board.cache_hierarchy.ruby_system.dma_controllers1.power_state.pwrStateResidencyTicks::UNDEFINED 30439557012295                       # Cumulative time (in ticks) in various power states (Tick)
board.cache_hierarchy.ruby_system.l1_controllers0.fullyBusyCycles      4257860                       # cycles for which number of transistions == max transitions (Unspecified)
board.cache_hierarchy.ruby_system.l1_controllers0.delayHistogram::samples     84984061                       # delay_histogram (Unspecified)
board.cache_hierarchy.ruby_system.l1_controllers0.delayHistogram::mean     0.119629                       # delay_histogram (Unspecified)
board.cache_hierarchy.ruby_system.l1_controllers0.delayHistogram::stdev     0.942155                       # delay_histogram (Unspecified)
board.cache_hierarchy.ruby_system.l1_controllers0.delayHistogram::0-7     84436340     99.36%     99.36% # delay_histogram (Unspecified)
board.cache_hierarchy.ruby_system.l1_controllers0.delayHistogram::8-15       514483      0.61%     99.96% # delay_histogram (Unspecified)
[...]
board.processor.cores7.core.fetch.nisnDist::stdev     2.571700                       # Number of instructions fetched each cycle (Total) (Count)
board.processor.cores7.core.fetch.nisnDist::underflows            0      0.00%      0.00% # Number of instructions fetched each cycle (Total) (Count)
board.processor.cores7.core.fetch.nisnDist::0   1928055780     81.86%     81.86% # Number of instructions fetched each cycle (Total) (Count)
board.processor.cores7.core.fetch.nisnDist::1     27239928      1.16%     83.01% # Number of instructions fetched each cycle (Total) (Count)
board.processor.cores7.core.fetch.nisnDist::2     23165478      0.98%     84.00% # Number of instructions fetched each cycle (Total) (Count)
board.processor.cores7.core.fetch.nisnDist::3     22790419      0.97%     84.96% # Number of instructions fetched each cycle (Total) (Count)
board.processor.cores7.core.fetch.nisnDist::4     50596855      2.15%     87.11% # Number of instructions fetched each cycle (Total) (Count)
board.processor.cores7.core.fetch.nisnDist::5     30344661      1.29%     88.40% # Number of instructions fetched each cycle (Total) (Count)
board.processor.cores7.core.fetch.nisnDist::6     20518102      0.87%     89.27% # Number of instructions fetched each cycle (Total) (Count)
board.processor.cores7.core.fetch.nisnDist::7     20883235      0.89%     90.16% # Number of instructions fetched each cycle (Total) (Count)
board.processor.cores7.core.fetch.nisnDist::8    231829045      9.84%    100.00% # Number of instructions fetched each cycle (Total) (Count)
board.processor.cores7.core.fetch.nisnDist::overflows            0      0.00%    100.00% # Number of instructions fetched each cycle (Total) (Count)
board.processor.cores7.core.fetch.nisnDist::min_value            0                       # Number of instructions fetched each cycle (Total) (Count)
board.processor.cores7.core.fetch.nisnDist::max_value            8                       # Number of instructions fetched each cycle (Total) (Count)
board.processor.cores7.core.fetch.nisnDist::total   2355423503                       # Number of instructions fetched each cycle (Total) (Count)
board.processor.cores7.core.fetch.branchRate     0.063439                       # Number of branch fetches per cycle (Ratio)
board.processor.cores7.core.fetch.rate       0.307384                       # Number of inst fetches per cycle ((Count/Cycle))
board.processor.cores7.core.iew.idleCycles            0                       # Number of cycles IEW is idle (Cycle)
board.processor.cores7.core.iew.squashCycles     23240767                       # Number of cycles IEW is squashing (Cycle)
board.processor.cores7.core.iew.blockCycles    270722661                       # Number of cycles IEW is blocking (Cycle)
board.processor.cores7.core.iew.unblockCycles     87318684                       # Number of cycles IEW is unblocking (Cycle)
board.processor.cores7.core.iew.dispatchedInsts   2235912318                       # Number of instructions dispatched to IQ (Count)
board.processor.cores7.core.iew.dispSquashedInsts      2348153                       # Number of squashed instructions skipped by dispatch (Count)
board.processor.cores7.core.iew.dispLoadInsts    302541563                       # Number of dispatched load instructions (Count)
board.processor.cores7.core.iew.dispStoreInsts    199453906                       # Number of dispatched store instructions (Count)
board.processor.cores7.core.iew.dispNonSpecInsts      3133764                       # Number of dispatched non-speculative instructions (Count)
board.processor.cores7.core.iew.iqFullEvents      1437627                       # Number of times the IQ has become full, causing a stall (Count)
board.processor.cores7.core.iew.lsqFullEvents     85036799                       # Number of times the LSQ has become full, causing a stall (Count)
board.processor.cores7.core.iew.memOrderViolationEvents       780657                       # Number of memory order violations (Count)
board.processor.cores7.core.iew.predictedTakenIncorrect      4393780                       # Number of branches that were predicted taken incorrectly (Count)
board.processor.cores7.core.iew.predictedNotTakenIncorrect     19617301                       # Number of branches that were predicted not taken incorrectly (Count)
board.processor.cores7.core.iew.branchMispredicts     24011081                       # Number of branch mispredicts detected at execute (Count)
board.processor.cores7.core.iew.instsToCommit   2058102628                       # Cumulative count of insts sent to commit (Count)
board.processor.cores7.core.iew.writebackCount   2041854490                       # Cumulative count of insts written-back (Count)
board.processor.cores7.core.iew.producerInst   1431824956                       # Number of instructions producing a value (Count)
board.processor.cores7.core.iew.consumerInst   2444822883                       # Number of instructions consuming a value (Count)
board.processor.cores7.core.iew.wbRate       0.474744                       # Insts written-back per cycle ((Count/Cycle))
board.processor.cores7.core.iew.wbFanout     0.585656                       # Average fanout of values written-back ((Count/Count))
board.processor.cores7.core.lsq0.forwLoads     40670261                       # Number of loads that had data forwarded from stores (Count)
board.processor.cores7.core.lsq0.squashedLoads     82203727                       # Number of loads squashed (Count)
board.processor.cores7.core.lsq0.ignoredResponses       232743                       # Number of memory responses ignored because the instruction is squashed (Count)
board.processor.cores7.core.lsq0.memOrderViolation       780657                       # Number of memory ordering violations (Count)
board.processor.cores7.core.lsq0.squashedStores     59292560                       # Number of stores squashed (Count)
board.processor.cores7.core.lsq0.rescheduledLoads       213368                       # Number of loads that were rescheduled (Count)
board.processor.cores7.core.lsq0.blockedByCache       308150                       # Number of times an access to memory failed due to the cache being blocked (Count)
board.processor.cores7.core.lsq0.loadToUse::samples    220010763                       # Distribution of cycle latency between the first time a load is issued and its completion (Unspecified)
board.processor.cores7.core.lsq0.loadToUse::mean    14.627662                       # Distribution of cycle latency between the first time a load is issued and its completion (Unspecified)
board.processor.cores7.core.lsq0.loadToUse::stdev    63.114352                       # Distribution of cycle latency between the first time a load is issued and its completion (Unspecified)
board.processor.cores7.core.lsq0.loadToUse::0-9    206393294     93.81%     93.81% # Distribution of cycle latency between the first time a load is issued and its completion (Unspecified)
board.processor.cores7.core.lsq0.loadToUse::10-19      2459092      1.12%     94.93% # Distribution of cycle latency between the first time a load is issued and its completion (Unspecified)
board.processor.cores7.core.lsq0.loadToUse::20-29       969867      0.44%     95.37% # Distribution of cycle latency between the first time a load is issued and its completion (Unspecified)
board.processor.cores7.core.lsq0.loadToUse::30-39       205511      0.09%     95.46% # Distribution of cycle latency between the first time a load is issued and its completion (Unspecified)
board.processor.cores7.core.lsq0.loadToUse::40-49       144602      0.07%     95.53% # Distribution of cycle latency between the first time a load is issued and its completion (Unspecified)
board.processor.cores7.core.lsq0.loadToUse::50-59       172011      0.08%     95.61% # Distribution of cycle latency between the first time a load is issued and its completion (Unspecified)
board.processor.cores7.core.lsq0.loadToUse::60-69        73345      0.03%     95.64% # Distribution of cycle latency between the first time a load is issued and its completion (Unspecified)
board.processor.cores7.core.lsq0.loadToUse::70-79        36382      0.02%     95.66% # Distribution of cycle latency between the first time a load is issued and its completion (Unspecified)
board.processor.cores7.core.lsq0.loadToUse::80-89        41317      0.02%     95.68% # Distribution of cycle latency between the first time a load is issued and its completion (Unspecified)
board.processor.cores7.core.lsq0.loadToUse::90-99        49860      0.02%     95.70% # Distribution of cycle latency between the first time a load is issued and its completion (Unspecified)
board.processor.cores7.core.lsq0.loadToUse::100-109        65377      0.03%     95.73% # Distribution of cycle latency between the first time a load is issued and its completion (Unspecified)
board.processor.cores7.core.lsq0.loadToUse::110-119        68750      0.03%     95.76% # Distribution of cycle latency between the first time a load is issued and its completion (Unspecified)
board.processor.cores7.core.lsq0.loadToUse::120-129        85839      0.04%     95.80% # Distribution of cycle latency between the first time a load is issued and its completion (Unspecified)
board.processor.cores7.core.lsq0.loadToUse::130-139       186969      0.08%     95.88% # Distribution of cycle latency between the first time a load is issued and its completion (Unspecified)
board.processor.cores7.core.lsq0.loadToUse::140-149      1189083      0.54%     96.42% # Distribution of cycle latency between the first time a load is issued and its completion (Unspecified)
board.processor.cores7.core.lsq0.loadToUse::150-159       468942      0.21%     96.64% # Distribution of cycle latency between the first time a load is issued and its completion (Unspecified)
board.processor.cores7.core.lsq0.loadToUse::160-169       320683      0.15%     96.78% # Distribution of cycle latency between the first time a load is issued and its completion (Unspecified)
board.processor.cores7.core.lsq0.loadToUse::170-179       176566      0.08%     96.86% # Distribution of cycle latency between the first time a load is issued and its completion (Unspecified)
board.processor.cores7.core.lsq0.loadToUse::180-189       391224      0.18%     97.04% # Distribution of cycle latency between the first time a load is issued and its completion (Unspecified)
board.processor.cores7.core.lsq0.loadToUse::190-199       269429      0.12%     97.16% # Distribution of cycle latency between the first time a load is issued and its completion (Unspecified)
board.processor.cores7.core.lsq0.loadToUse::200-209       216747      0.10%     97.26% # Distribution of cycle latency between the first time a load is issued and its completion (Unspecified)
board.processor.cores7.core.lsq0.loadToUse::210-219       229064      0.10%     97.37% # Distribution of cycle latency between the first time a load is issued and its completion (Unspecified)
board.processor.cores7.core.lsq0.loadToUse::220-229      1087906      0.49%     97.86% # Distribution of cycle latency between the first time a load is issued and its completion (Unspecified)
board.processor.cores7.core.lsq0.loadToUse::230-239       976423      0.44%     98.30% # Distribution of cycle latency between the first time a load is issued and its completion (Unspecified)
board.processor.cores7.core.lsq0.loadToUse::240-249       548211      0.25%     98.55% # Distribution of cycle latency between the first time a load is issued and its completion (Unspecified)
board.processor.cores7.core.lsq0.loadToUse::250-259       336598      0.15%     98.71% # Distribution of cycle latency between the first time a load is issued and its completion (Unspecified)
board.processor.cores7.core.lsq0.loadToUse::260-269       236499      0.11%     98.81% # Distribution of cycle latency between the first time a load is issued and its completion (Unspecified)
board.processor.cores7.core.lsq0.loadToUse::270-279       189818      0.09%     98.90% # Distribution of cycle latency between the first time a load is issued and its completion (Unspecified)
board.processor.cores7.core.lsq0.loadToUse::280-289       161021      0.07%     98.97% # Distribution of cycle latency between the first time a load is issued and its completion (Unspecified)
board.processor.cores7.core.lsq0.loadToUse::290-299       149423      0.07%     99.04% # Distribution of cycle latency between the first time a load is issued and its completion (Unspecified)
board.processor.cores7.core.lsq0.loadToUse::overflows      2110910      0.96%    100.00% # Distribution of cycle latency between the first time a load is issued and its completion (Unspecified)
board.processor.cores7.core.lsq0.loadToUse::min_value            2                       # Distribution of cycle latency between the first time a load is issued and its completion (Unspecified)
board.processor.cores7.core.lsq0.loadToUse::max_value         7007                       # Distribution of cycle latency between the first time a load is issued and its completion (Unspecified)
board.processor.cores7.core.lsq0.loadToUse::total    220010763                       # Distribution of cycle latency between the first time a load is issued and its completion (Unspecified)
board.processor.cores7.core.mmu.dtb.rdAccesses    282899107                       # TLB accesses on read requests (Count)
board.processor.cores7.core.mmu.dtb.wrAccesses    179946561                       # TLB accesses on write requests (Count)
board.processor.cores7.core.mmu.dtb.rdMisses      6070748                       # TLB misses on read requests (Count)
board.processor.cores7.core.mmu.dtb.wrMisses      2239695                       # TLB misses on write requests (Count)
board.processor.cores7.core.mmu.dtb.walker.power_state.pwrStateResidencyTicks::UNDEFINED 30439557012295                       # Cumulative time (in ticks) in various power states (Tick)
board.processor.cores7.core.mmu.itb.rdAccesses            0                       # TLB accesses on read requests (Count)
board.processor.cores7.core.mmu.itb.wrAccesses    180058886                       # TLB accesses on write requests (Count)
board.processor.cores7.core.mmu.itb.rdMisses            0                       # TLB misses on read requests (Count)
board.processor.cores7.core.mmu.itb.wrMisses      6770194                       # TLB misses on write requests (Count)
board.processor.cores7.core.mmu.itb.walker.power_state.pwrStateResidencyTicks::UNDEFINED 30439557012295                       # Cumulative time (in ticks) in various power states (Tick)
board.processor.cores7.core.power_state.numTransitions         9222                       # Number of power state transitions (Count)
board.processor.cores7.core.power_state.ticksClkGated::samples         4612                       # Distribution of time spent in the clock gated state (Tick)
board.processor.cores7.core.power_state.ticksClkGated::mean 357638094.519731                       # Distribution of time spent in the clock gated state (Tick)
board.processor.cores7.core.power_state.ticksClkGated::stdev 399178242.548866                       # Distribution of time spent in the clock gated state (Tick)
board.processor.cores7.core.power_state.ticksClkGated::1000-5e+10         4612    100.00%    100.00% # Distribution of time spent in the clock gated state (Tick)
board.processor.cores7.core.power_state.ticksClkGated::min_value        92908                       # Distribution of time spent in the clock gated state (Tick)
board.processor.cores7.core.power_state.ticksClkGated::max_value    999222444                       # Distribution of time spent in the clock gated state (Tick)
board.processor.cores7.core.power_state.ticksClkGated::total         4612                       # Distribution of time spent in the clock gated state (Tick)
board.processor.cores7.core.power_state.pwrStateResidencyTicks::ON 1432218422365                       # Cumulative time (in ticks) in various power states (Tick)
board.processor.cores7.core.power_state.pwrStateResidencyTicks::CLK_GATED 1649426891925                       # Cumulative time (in ticks) in various power states (Tick)
board.processor.cores7.core.rename.squashCycles     23240767                       # Number of cycles rename is squashing (Cycle)
board.processor.cores7.core.rename.idleCycles    941474828                       # Number of cycles rename is idle (Cycle)
board.processor.cores7.core.rename.blockCycles    538747513                       # Number of cycles rename is blocking (Cycle)
board.processor.cores7.core.rename.serializeStallCycles    165146055                       # count of cycles rename stalled for serializing inst (Cycle)
board.processor.cores7.core.rename.runCycles    342835932                       # Number of cycles rename is running (Cycle)
board.processor.cores7.core.rename.unblockCycles    343978408                       # Number of cycles rename is unblocking (Cycle)
board.processor.cores7.core.rename.renamedInsts   2308018658                       # Number of instructions processed by rename (Count)
board.processor.cores7.core.rename.ROBFullEvents     11295273                       # Number of times rename has blocked due to ROB full (Count)
board.processor.cores7.core.rename.IQFullEvents     70852838                       # Number of times rename has blocked due to IQ full (Count)
board.processor.cores7.core.rename.LQFullEvents     29145358                       # Number of times rename has blocked due to LQ full (Count)
board.processor.cores7.core.rename.SQFullEvents    234620342                       # Number of times rename has blocked due to SQ full (Count)
board.processor.cores7.core.rename.fullRegistersEvents         1243                       # Number of times there has been no free registers (Count)
board.processor.cores7.core.rename.renamedOperands   2547889374                       # Number of destination operands rename has renamed (Count)
board.processor.cores7.core.rename.lookups   5754554613                       # Number of register rename lookups that rename has made (Count)
board.processor.cores7.core.rename.intLookups   3518841883                       # Number of integer rename lookups (Count)
board.processor.cores7.core.rename.fpLookups    175132645                       # Number of floating rename lookups (Count)
board.processor.cores7.core.rename.committedMaps   1930931787                       # Number of HB maps that are committed (Count)
board.processor.cores7.core.rename.undoneMaps    616957587                       # Number of HB maps that are undone due to squashing (Count)
board.processor.cores7.core.rename.serializing      2208662                       # count of serializing insts renamed (Count)
board.processor.cores7.core.rename.tempSerializing      2198595                       # count of temporary serializing insts renamed (Count)
board.processor.cores7.core.rename.skidInsts    252237095                       # count of insts added to the skid buffer (Count)
board.processor.cores7.core.rob.reads      4403062370                       # The number of ROB reads (Count)
board.processor.cores7.core.rob.writes     4534855543                       # The number of ROB writes (Count)
board.processor.cores7.core.thread_0.numInsts    872516065                       # Number of Instructions committed (Count)
board.processor.cores7.core.thread_0.numOps   1695940018                       # Number of Ops committed (Count)
board.processor.cores7.core.thread_0.numMemRefs            0                       # Number of Memory References (Count)
board.workload.inst.arm                             0                       # number of arm instructions executed (Count)
board.workload.inst.quiesce                         0                       # number of quiesce instructions executed (Count)

---------- End Simulation Statistics   ----------
