
---------- Begin Simulation Statistics ----------
simSeconds                                   3.369821                       # Number of seconds simulated (Second)
simTicks                                 3369820654485                       # Number of ticks simulated (Tick)
finalTick                                38380362579973                       # Number of ticks from beginning of simulation (restored from checkpoints and never reset) (Tick)
simFreq                                  1000000000000                       # The number of ticks per simulated second ((Tick/Second))
hostSeconds                                  38076.56                       # Real time elapsed on the host (Second)
hostTickRate                                 88501185                       # The number of ticks simulated per host second (ticks/s) ((Tick/Second))
hostMemory                                    4650156                       # Number of bytes of host memory used (Byte)
simInsts                                   7458658011                       # Number of instructions simulated (Count)
simOps                                    10539919930                       # Number of ops (including micro ops) simulated (Count)
hostInstRate                                   195886                       # Simulator instruction rate (inst/s) ((Count/Second))
hostOpRate                                     276809                       # Simulator op (including micro ops) rate (op/s) ((Count/Second))
board.cache_hierarchy.ruby_system.delayHistogram::bucket_size          128                       # delay histogram for all message (Unspecified)
board.cache_hierarchy.ruby_system.delayHistogram::max_bucket         1279                       # delay histogram for all message (Unspecified)
board.cache_hierarchy.ruby_system.delayHistogram::samples    766530597                       # delay histogram for all message (Unspecified)
board.cache_hierarchy.ruby_system.delayHistogram::mean     0.395421                       # delay histogram for all message (Unspecified)
board.cache_hierarchy.ruby_system.delayHistogram::stdev     1.889373                       # delay histogram for all message (Unspecified)
board.cache_hierarchy.ruby_system.delayHistogram |   766529954    100.00%    100.00% |         562      0.00%    100.00% |          47      0.00%    100.00% |          20      0.00%    100.00% |           6      0.00%    100.00% |           0      0.00%    100.00% |           4      0.00%    100.00% |           3      0.00%    100.00% |           1      0.00%    100.00% |           0      0.00%    100.00% # delay histogram for all message (Unspecified)
board.cache_hierarchy.ruby_system.delayHistogram::total    766530597                       # delay histogram for all message (Unspecified)
board.cache_hierarchy.ruby_system.m_outstandReqHistSeqr::bucket_size            2                       (Unspecified)
board.cache_hierarchy.ruby_system.m_outstandReqHistSeqr::max_bucket           19                       (Unspecified)
board.cache_hierarchy.ruby_system.m_outstandReqHistSeqr::samples   2038819665                       (Unspecified)
board.cache_hierarchy.ruby_system.m_outstandReqHistSeqr::mean     2.111547                       (Unspecified)
board.cache_hierarchy.ruby_system.m_outstandReqHistSeqr::gmean     1.770061                       (Unspecified)
board.cache_hierarchy.ruby_system.m_outstandReqHistSeqr::stdev     1.547016                       (Unspecified)
board.cache_hierarchy.ruby_system.m_outstandReqHistSeqr |   844067141     41.40%     41.40% |   962140105     47.19%     88.59% |   175956964      8.63%     97.22% |    31941640      1.57%     98.79% |    10637313      0.52%     99.31% |     4678642      0.23%     99.54% |     3886789      0.19%     99.73% |     3063649      0.15%     99.88% |     2447422      0.12%    100.00% |           0      0.00%    100.00% (Unspecified)
board.cache_hierarchy.ruby_system.m_outstandReqHistSeqr::total   2038819665                       (Unspecified)
board.cache_hierarchy.ruby_system.m_latencyHistSeqr::bucket_size          512                       (Unspecified)
board.cache_hierarchy.ruby_system.m_latencyHistSeqr::max_bucket         5119                       (Unspecified)
board.cache_hierarchy.ruby_system.m_latencyHistSeqr::samples   2047177410                       (Unspecified)
board.cache_hierarchy.ruby_system.m_latencyHistSeqr::mean    10.685272                       (Unspecified)
board.cache_hierarchy.ruby_system.m_latencyHistSeqr::gmean     1.364095                       (Unspecified)
board.cache_hierarchy.ruby_system.m_latencyHistSeqr::stdev    48.513120                       (Unspecified)
board.cache_hierarchy.ruby_system.m_latencyHistSeqr |  2045325770     99.91%     99.91% |     1663088      0.08%     99.99% |      180482      0.01%    100.00% |        6323      0.00%    100.00% |        1344      0.00%    100.00% |         316      0.00%    100.00% |          64      0.00%    100.00% |          17      0.00%    100.00% |           5      0.00%    100.00% |           1      0.00%    100.00% (Unspecified)
board.cache_hierarchy.ruby_system.m_latencyHistSeqr::total   2047177410                       (Unspecified)
board.cache_hierarchy.ruby_system.m_hitLatencyHistSeqr::bucket_size          256                       (Unspecified)
board.cache_hierarchy.ruby_system.m_hitLatencyHistSeqr::max_bucket         2559                       (Unspecified)
board.cache_hierarchy.ruby_system.m_hitLatencyHistSeqr::samples   1900938174                       (Unspecified)
board.cache_hierarchy.ruby_system.m_hitLatencyHistSeqr::mean     1.020738                       (Unspecified)
board.cache_hierarchy.ruby_system.m_hitLatencyHistSeqr::gmean     1.004105                       (Unspecified)
board.cache_hierarchy.ruby_system.m_hitLatencyHistSeqr::stdev     1.960549                       (Unspecified)
board.cache_hierarchy.ruby_system.m_hitLatencyHistSeqr |  1900921679    100.00%    100.00% |       13867      0.00%    100.00% |        1223      0.00%    100.00% |        1101      0.00%    100.00% |         247      0.00%    100.00% |          51      0.00%    100.00% |           5      0.00%    100.00% |           1      0.00%    100.00% |           0      0.00%    100.00% |           0      0.00%    100.00% (Unspecified)
board.cache_hierarchy.ruby_system.m_hitLatencyHistSeqr::total   1900938174                       (Unspecified)
board.cache_hierarchy.ruby_system.m_missLatencyHistSeqr::bucket_size          512                       (Unspecified)
board.cache_hierarchy.ruby_system.m_missLatencyHistSeqr::max_bucket         5119                       (Unspecified)
board.cache_hierarchy.ruby_system.m_missLatencyHistSeqr::samples    146239236                       (Unspecified)
board.cache_hierarchy.ruby_system.m_missLatencyHistSeqr::mean   136.312847                       (Unspecified)
board.cache_hierarchy.ruby_system.m_missLatencyHistSeqr::gmean    73.204802                       (Unspecified)
board.cache_hierarchy.ruby_system.m_missLatencyHistSeqr::stdev   126.095874                       (Unspecified)
board.cache_hierarchy.ruby_system.m_missLatencyHistSeqr |   144390224     98.74%     98.74% |     1660764      1.14%     99.87% |      180184      0.12%     99.99% |        6317      0.00%    100.00% |        1344      0.00%    100.00% |         316      0.00%    100.00% |          64      0.00%    100.00% |          17      0.00%    100.00% |           5      0.00%    100.00% |           1      0.00%    100.00% (Unspecified)
board.cache_hierarchy.ruby_system.m_missLatencyHistSeqr::total    146239236                       (Unspecified)
board.cache_hierarchy.ruby_system.delayVCHist.vnet_0::bucket_size          128                       # delay histogram for vnet_0 (Unspecified)
board.cache_hierarchy.ruby_system.delayVCHist.vnet_0::max_bucket         1279                       # delay histogram for vnet_0 (Unspecified)
board.cache_hierarchy.ruby_system.delayVCHist.vnet_0::samples    243613389                       # delay histogram for vnet_0 (Unspecified)
board.cache_hierarchy.ruby_system.delayVCHist.vnet_0::mean     0.955915                       # delay histogram for vnet_0 (Unspecified)
board.cache_hierarchy.ruby_system.delayVCHist.vnet_0::stdev     2.965012                       # delay histogram for vnet_0 (Unspecified)
board.cache_hierarchy.ruby_system.delayVCHist.vnet_0 |   243612773    100.00%    100.00% |         546      0.00%    100.00% |          36      0.00%    100.00% |          20      0.00%    100.00% |           6      0.00%    100.00% |           0      0.00%    100.00% |           4      0.00%    100.00% |           3      0.00%    100.00% |           1      0.00%    100.00% |           0      0.00%    100.00% # delay histogram for vnet_0 (Unspecified)
board.cache_hierarchy.ruby_system.delayVCHist.vnet_0::total    243613389                       # delay histogram for vnet_0 (Unspecified)
board.cache_hierarchy.ruby_system.delayVCHist.vnet_1::bucket_size           64                       # delay histogram for vnet_1 (Unspecified)
board.cache_hierarchy.ruby_system.delayVCHist.vnet_1::max_bucket          639                       # delay histogram for vnet_1 (Unspecified)
board.cache_hierarchy.ruby_system.delayVCHist.vnet_1::samples    446772134                       # delay histogram for vnet_1 (Unspecified)
board.cache_hierarchy.ruby_system.delayVCHist.vnet_1::mean     0.157090                       # delay histogram for vnet_1 (Unspecified)
board.cache_hierarchy.ruby_system.delayVCHist.vnet_1::stdev     1.037340                       # delay histogram for vnet_1 (Unspecified)
board.cache_hierarchy.ruby_system.delayVCHist.vnet_1 |   446771792    100.00%    100.00% |         315      0.00%    100.00% |           8      0.00%    100.00% |           8      0.00%    100.00% |           9      0.00%    100.00% |           2      0.00%    100.00% |           0      0.00%    100.00% |           0      0.00%    100.00% |           0      0.00%    100.00% |           0      0.00%    100.00% # delay histogram for vnet_1 (Unspecified)
board.cache_hierarchy.ruby_system.delayVCHist.vnet_1::total    446772134                       # delay histogram for vnet_1 (Unspecified)
board.cache_hierarchy.ruby_system.delayVCHist.vnet_2::bucket_size            1                       # delay histogram for vnet_2 (Unspecified)
board.cache_hierarchy.ruby_system.delayVCHist.vnet_2::max_bucket            9                       # delay histogram for vnet_2 (Unspecified)
board.cache_hierarchy.ruby_system.delayVCHist.vnet_2::samples     76145074                       # delay histogram for vnet_2 (Unspecified)
board.cache_hierarchy.ruby_system.delayVCHist.vnet_2::mean     0.000599                       # delay histogram for vnet_2 (Unspecified)
board.cache_hierarchy.ruby_system.delayVCHist.vnet_2::stdev     0.034707                       # delay histogram for vnet_2 (Unspecified)
board.cache_hierarchy.ruby_system.delayVCHist.vnet_2 |    76122344     99.97%     99.97% |           0      0.00%     99.97% |       22661      0.03%    100.00% |           0      0.00%    100.00% |          69      0.00%    100.00% |           0      0.00%    100.00% |           0      0.00%    100.00% |           0      0.00%    100.00% |           0      0.00%    100.00% |           0      0.00%    100.00% # delay histogram for vnet_2 (Unspecified)
board.cache_hierarchy.ruby_system.delayVCHist.vnet_2::total     76145074                       # delay histogram for vnet_2 (Unspecified)
board.cache_hierarchy.ruby_system.Directory_Controller.Fetch     90340235      0.00%      0.00% (Unspecified)
board.cache_hierarchy.ruby_system.Directory_Controller.Data     15721991      0.00%      0.00% (Unspecified)
board.cache_hierarchy.ruby_system.Directory_Controller.Memory_Data     90636330      0.00%      0.00% (Unspecified)
board.cache_hierarchy.ruby_system.Directory_Controller.Memory_Ack     16503550      0.00%      0.00% (Unspecified)
board.cache_hierarchy.ruby_system.Directory_Controller.DMA_READ       362704      0.00%      0.00% (Unspecified)
board.cache_hierarchy.ruby_system.Directory_Controller.DMA_WRITE       781568      0.00%      0.00% (Unspecified)
board.cache_hierarchy.ruby_system.Directory_Controller.CleanReplacement     74614148      0.00%      0.00% (Unspecified)
board.cache_hierarchy.ruby_system.Directory_Controller.I.Fetch     90340235      0.00%      0.00% (Unspecified)
board.cache_hierarchy.ruby_system.Directory_Controller.I.DMA_READ       296096      0.00%      0.00% (Unspecified)
board.cache_hierarchy.ruby_system.Directory_Controller.I.DMA_WRITE       781559      0.00%      0.00% (Unspecified)
board.cache_hierarchy.ruby_system.Directory_Controller.ID.Memory_Data       296096      0.00%      0.00% (Unspecified)
board.cache_hierarchy.ruby_system.Directory_Controller.ID_W.Memory_Ack       781559      0.00%      0.00% (Unspecified)
board.cache_hierarchy.ruby_system.Directory_Controller.M.Data     15655379      0.00%      0.00% (Unspecified)
board.cache_hierarchy.ruby_system.Directory_Controller.M.DMA_READ        66603      0.00%      0.00% (Unspecified)
board.cache_hierarchy.ruby_system.Directory_Controller.M.DMA_WRITE            9      0.00%      0.00% (Unspecified)
board.cache_hierarchy.ruby_system.Directory_Controller.M.CleanReplacement     74614148      0.00%      0.00% (Unspecified)
board.cache_hierarchy.ruby_system.Directory_Controller.IM.Memory_Data     90340234      0.00%      0.00% (Unspecified)
board.cache_hierarchy.ruby_system.Directory_Controller.MI.Memory_Ack     15655379      0.00%      0.00% (Unspecified)
board.cache_hierarchy.ruby_system.Directory_Controller.MI.DMA_READ            5      0.00%      0.00% (Unspecified)
board.cache_hierarchy.ruby_system.Directory_Controller.M_DRD.Data        66603      0.00%      0.00% (Unspecified)
board.cache_hierarchy.ruby_system.Directory_Controller.M_DRDI.Memory_Ack        66603      0.00%      0.00% (Unspecified)
board.cache_hierarchy.ruby_system.Directory_Controller.M_DWR.Data            9      0.00%      0.00% (Unspecified)
board.cache_hierarchy.ruby_system.Directory_Controller.M_DWRI.Memory_Ack            9      0.00%      0.00% (Unspecified)
board.cache_hierarchy.ruby_system.DMA_Controller.ReadRequest |      362699    100.00%    100.00% |           0      0.00%    100.00% (Unspecified)
board.cache_hierarchy.ruby_system.DMA_Controller.ReadRequest::total       362699                       (Unspecified)
board.cache_hierarchy.ruby_system.DMA_Controller.WriteRequest |      781568    100.00%    100.00% |           0      0.00%    100.00% (Unspecified)
board.cache_hierarchy.ruby_system.DMA_Controller.WriteRequest::total       781568                       (Unspecified)
board.cache_hierarchy.ruby_system.DMA_Controller.Data |      362699    100.00%    100.00% |           0      0.00%    100.00% (Unspecified)
board.cache_hierarchy.ruby_system.DMA_Controller.Data::total       362699                       (Unspecified)
board.cache_hierarchy.ruby_system.DMA_Controller.Ack |      781568    100.00%    100.00% |           0      0.00%    100.00% (Unspecified)
board.cache_hierarchy.ruby_system.DMA_Controller.Ack::total       781568                       (Unspecified)
board.cache_hierarchy.ruby_system.DMA_Controller.READY.ReadRequest |      362699    100.00%    100.00% |           0      0.00%    100.00% (Unspecified)
board.cache_hierarchy.ruby_system.DMA_Controller.READY.ReadRequest::total       362699                       (Unspecified)
board.cache_hierarchy.ruby_system.DMA_Controller.READY.WriteRequest |      781568    100.00%    100.00% |           0      0.00%    100.00% (Unspecified)
board.cache_hierarchy.ruby_system.DMA_Controller.READY.WriteRequest::total       781568                       (Unspecified)
board.cache_hierarchy.ruby_system.DMA_Controller.BUSY_RD.Data |      362699    100.00%    100.00% |           0      0.00%    100.00% (Unspecified)
board.cache_hierarchy.ruby_system.DMA_Controller.BUSY_RD.Data::total       362699                       (Unspecified)
board.cache_hierarchy.ruby_system.DMA_Controller.BUSY_WR.Ack |      781568    100.00%    100.00% |           0      0.00%    100.00% (Unspecified)
board.cache_hierarchy.ruby_system.DMA_Controller.BUSY_WR.Ack::total       781568                       (Unspecified)
board.cache_hierarchy.ruby_system.L1Cache_Controller.Load |   451604504     50.92%     50.92% |   435369238     49.08%    100.00% (Unspecified)
board.cache_hierarchy.ruby_system.L1Cache_Controller.Load::total    886973742                       (Unspecified)
board.cache_hierarchy.ruby_system.L1Cache_Controller.Ifetch |   314606187     50.75%     50.75% |   305338957     49.25%    100.00% (Unspecified)
board.cache_hierarchy.ruby_system.L1Cache_Controller.Ifetch::total    619945144                       (Unspecified)
board.cache_hierarchy.ruby_system.L1Cache_Controller.Store |   272138731     50.23%     50.23% |   269670719     49.77%    100.00% (Unspecified)
board.cache_hierarchy.ruby_system.L1Cache_Controller.Store::total    541809450                       (Unspecified)
board.cache_hierarchy.ruby_system.L1Cache_Controller.Inv |    37181756     49.99%     49.99% |    37202424     50.01%    100.00% (Unspecified)
board.cache_hierarchy.ruby_system.L1Cache_Controller.Inv::total     74384180                       (Unspecified)
board.cache_hierarchy.ruby_system.L1Cache_Controller.L1_Replacement |    72121739     50.71%     50.71% |    70107932     49.29%    100.00% (Unspecified)
board.cache_hierarchy.ruby_system.L1Cache_Controller.L1_Replacement::total    142229671                       (Unspecified)
board.cache_hierarchy.ruby_system.L1Cache_Controller.Fwd_GETX |       65498     58.11%     58.11% |       47209     41.89%    100.00% (Unspecified)
board.cache_hierarchy.ruby_system.L1Cache_Controller.Fwd_GETX::total       112707                       (Unspecified)
board.cache_hierarchy.ruby_system.L1Cache_Controller.Fwd_GETS |      880925     53.45%     53.45% |      767139     46.55%    100.00% (Unspecified)
board.cache_hierarchy.ruby_system.L1Cache_Controller.Fwd_GETS::total      1648064                       (Unspecified)
board.cache_hierarchy.ruby_system.L1Cache_Controller.Fwd_GET_INSTR |          52     42.28%     42.28% |          71     57.72%    100.00% (Unspecified)
board.cache_hierarchy.ruby_system.L1Cache_Controller.Fwd_GET_INSTR::total          123                       (Unspecified)
board.cache_hierarchy.ruby_system.L1Cache_Controller.Data |        2582     77.68%     77.68% |         742     22.32%    100.00% (Unspecified)
board.cache_hierarchy.ruby_system.L1Cache_Controller.Data::total         3324                       (Unspecified)
board.cache_hierarchy.ruby_system.L1Cache_Controller.Data_Exclusive |    19727882     51.34%     51.34% |    18696154     48.66%    100.00% (Unspecified)
board.cache_hierarchy.ruby_system.L1Cache_Controller.Data_Exclusive::total     38424036                       (Unspecified)
board.cache_hierarchy.ruby_system.L1Cache_Controller.DataS_fromL1 |      767210     46.55%     46.55% |      880977     53.45%    100.00% (Unspecified)
board.cache_hierarchy.ruby_system.L1Cache_Controller.DataS_fromL1::total      1648187                       (Unspecified)
board.cache_hierarchy.ruby_system.L1Cache_Controller.Data_all_Acks |    53376274     50.41%     50.41% |    52517105     49.59%    100.00% (Unspecified)
board.cache_hierarchy.ruby_system.L1Cache_Controller.Data_all_Acks::total    105893379                       (Unspecified)
board.cache_hierarchy.ruby_system.L1Cache_Controller.Ack |      186626     55.62%     55.62% |      148886     44.38%    100.00% (Unspecified)
board.cache_hierarchy.ruby_system.L1Cache_Controller.Ack::total       335512                       (Unspecified)
board.cache_hierarchy.ruby_system.L1Cache_Controller.Ack_all |      189234     55.84%     55.84% |      149649     44.16%    100.00% (Unspecified)
board.cache_hierarchy.ruby_system.L1Cache_Controller.Ack_all::total       338883                       (Unspecified)
board.cache_hierarchy.ruby_system.L1Cache_Controller.WB_Ack |    22193211     50.79%     50.79% |    21499086     49.21%    100.00% (Unspecified)
board.cache_hierarchy.ruby_system.L1Cache_Controller.WB_Ack::total     43692297                       (Unspecified)
board.cache_hierarchy.ruby_system.L1Cache_Controller.NP.Load |    20743736     51.38%     51.38% |    19629486     48.62%    100.00% (Unspecified)
board.cache_hierarchy.ruby_system.L1Cache_Controller.NP.Load::total     40373222                       (Unspecified)
board.cache_hierarchy.ruby_system.L1Cache_Controller.NP.Ifetch |    45138788     50.64%     50.64% |    43997151     49.36%    100.00% (Unspecified)
board.cache_hierarchy.ruby_system.L1Cache_Controller.NP.Ifetch::total     89135939                       (Unspecified)
board.cache_hierarchy.ruby_system.L1Cache_Controller.NP.Store |     6238931     49.05%     49.05% |     6480948     50.95%    100.00% (Unspecified)
board.cache_hierarchy.ruby_system.L1Cache_Controller.NP.Store::total     12719879                       (Unspecified)
board.cache_hierarchy.ruby_system.L1Cache_Controller.NP.Inv |    31835858     50.14%     50.14% |    31661500     49.86%    100.00% (Unspecified)
board.cache_hierarchy.ruby_system.L1Cache_Controller.NP.Inv::total     63497358                       (Unspecified)
board.cache_hierarchy.ruby_system.L1Cache_Controller.I.Load |     1012125     47.91%     47.91% |     1100577     52.09%    100.00% (Unspecified)
board.cache_hierarchy.ruby_system.L1Cache_Controller.I.Load::total      2112702                       (Unspecified)
board.cache_hierarchy.ruby_system.L1Cache_Controller.I.Ifetch |      513008     45.07%     45.07% |      625233     54.93%    100.00% (Unspecified)
board.cache_hierarchy.ruby_system.L1Cache_Controller.I.Ifetch::total      1138241                       (Unspecified)
board.cache_hierarchy.ruby_system.L1Cache_Controller.I.Store |      226944     46.60%     46.60% |      260069     53.40%    100.00% (Unspecified)
board.cache_hierarchy.ruby_system.L1Cache_Controller.I.Store::total       487013                       (Unspecified)
board.cache_hierarchy.ruby_system.L1Cache_Controller.I.Inv |           2     50.00%     50.00% |           2     50.00%    100.00% (Unspecified)
board.cache_hierarchy.ruby_system.L1Cache_Controller.I.Inv::total            4                       (Unspecified)
board.cache_hierarchy.ruby_system.L1Cache_Controller.I.L1_Replacement |     3657446     50.40%     50.40% |     3598766     49.60%    100.00% (Unspecified)
board.cache_hierarchy.ruby_system.L1Cache_Controller.I.L1_Replacement::total      7256212                       (Unspecified)
board.cache_hierarchy.ruby_system.L1Cache_Controller.S.Load |    19041709     45.47%     45.47% |    22839529     54.53%    100.00% (Unspecified)
board.cache_hierarchy.ruby_system.L1Cache_Controller.S.Load::total     41881238                       (Unspecified)
board.cache_hierarchy.ruby_system.L1Cache_Controller.S.Ifetch |   268953761     50.78%     50.78% |   260716109     49.22%    100.00% (Unspecified)
board.cache_hierarchy.ruby_system.L1Cache_Controller.S.Ifetch::total    529669870                       (Unspecified)
board.cache_hierarchy.ruby_system.L1Cache_Controller.S.Store |      187069     55.43%     55.43% |      150422     44.57%    100.00% (Unspecified)
board.cache_hierarchy.ruby_system.L1Cache_Controller.S.Store::total       337491                       (Unspecified)
board.cache_hierarchy.ruby_system.L1Cache_Controller.S.Inv |     2103235     48.17%     48.17% |     2263407     51.83%    100.00% (Unspecified)
board.cache_hierarchy.ruby_system.L1Cache_Controller.S.Inv::total      4366642                       (Unspecified)
board.cache_hierarchy.ruby_system.L1Cache_Controller.S.L1_Replacement |    46269774     50.69%     50.69% |    45008709     49.31%    100.00% (Unspecified)
board.cache_hierarchy.ruby_system.L1Cache_Controller.S.L1_Replacement::total     91278483                       (Unspecified)
board.cache_hierarchy.ruby_system.L1Cache_Controller.E.Load |   193618955     51.38%     51.38% |   183183940     48.62%    100.00% (Unspecified)
board.cache_hierarchy.ruby_system.L1Cache_Controller.E.Load::total    376802895                       (Unspecified)
board.cache_hierarchy.ruby_system.L1Cache_Controller.E.Store |     3058425     50.80%     50.80% |     2961942     49.20%    100.00% (Unspecified)
board.cache_hierarchy.ruby_system.L1Cache_Controller.E.Store::total      6020367                       (Unspecified)
board.cache_hierarchy.ruby_system.L1Cache_Controller.E.Inv |     1753606     49.88%     49.88% |     1761702     50.12%    100.00% (Unspecified)
board.cache_hierarchy.ruby_system.L1Cache_Controller.E.Inv::total      3515308                       (Unspecified)
board.cache_hierarchy.ruby_system.L1Cache_Controller.E.L1_Replacement |    14257991     51.63%     51.63% |    13356177     48.37%    100.00% (Unspecified)
board.cache_hierarchy.ruby_system.L1Cache_Controller.E.L1_Replacement::total     27614168                       (Unspecified)
board.cache_hierarchy.ruby_system.L1Cache_Controller.E.Fwd_GETX |        9877     48.49%     48.49% |       10491     51.51%    100.00% (Unspecified)
board.cache_hierarchy.ruby_system.L1Cache_Controller.E.Fwd_GETX::total        20368                       (Unspecified)
board.cache_hierarchy.ruby_system.L1Cache_Controller.E.Fwd_GETS |      647821     51.69%     51.69% |      605497     48.31%    100.00% (Unspecified)
board.cache_hierarchy.ruby_system.L1Cache_Controller.E.Fwd_GETS::total      1253318                       (Unspecified)
board.cache_hierarchy.ruby_system.L1Cache_Controller.E.Fwd_GET_INSTR |          45     45.00%     45.00% |          55     55.00%    100.00% (Unspecified)
board.cache_hierarchy.ruby_system.L1Cache_Controller.E.Fwd_GET_INSTR::total          100                       (Unspecified)
board.cache_hierarchy.ruby_system.L1Cache_Controller.M.Load |   217185201     51.01%     51.01% |   208613507     48.99%    100.00% (Unspecified)
board.cache_hierarchy.ruby_system.L1Cache_Controller.M.Load::total    425798708                       (Unspecified)
board.cache_hierarchy.ruby_system.L1Cache_Controller.M.Store |   262427141     50.25%     50.25% |   259817173     49.75%    100.00% (Unspecified)
board.cache_hierarchy.ruby_system.L1Cache_Controller.M.Store::total    522244314                       (Unspecified)
board.cache_hierarchy.ruby_system.L1Cache_Controller.M.Inv |     1487112     49.59%     49.59% |     1511984     50.41%    100.00% (Unspecified)
board.cache_hierarchy.ruby_system.L1Cache_Controller.M.Inv::total      2999096                       (Unspecified)
board.cache_hierarchy.ruby_system.L1Cache_Controller.M.L1_Replacement |     7935220     49.35%     49.35% |     8142909     50.65%    100.00% (Unspecified)
board.cache_hierarchy.ruby_system.L1Cache_Controller.M.L1_Replacement::total     16078129                       (Unspecified)
board.cache_hierarchy.ruby_system.L1Cache_Controller.M.Fwd_GETX |       55617     60.24%     60.24% |       36706     39.76%    100.00% (Unspecified)
board.cache_hierarchy.ruby_system.L1Cache_Controller.M.Fwd_GETX::total        92323                       (Unspecified)
board.cache_hierarchy.ruby_system.L1Cache_Controller.M.Fwd_GETS |      233031     59.05%     59.05% |      161576     40.95%    100.00% (Unspecified)
board.cache_hierarchy.ruby_system.L1Cache_Controller.M.Fwd_GETS::total       394607                       (Unspecified)
board.cache_hierarchy.ruby_system.L1Cache_Controller.IS.Inv |         545     54.55%     54.55% |         454     45.45%    100.00% (Unspecified)
board.cache_hierarchy.ruby_system.L1Cache_Controller.IS.Inv::total          999                       (Unspecified)
board.cache_hierarchy.ruby_system.L1Cache_Controller.IS.L1_Replacement |         869     48.01%     48.01% |         941     51.99%    100.00% (Unspecified)
board.cache_hierarchy.ruby_system.L1Cache_Controller.IS.L1_Replacement::total         1810                       (Unspecified)
board.cache_hierarchy.ruby_system.L1Cache_Controller.IS.Data_Exclusive |    19727795     51.34%     51.34% |    18696088     48.66%    100.00% (Unspecified)
board.cache_hierarchy.ruby_system.L1Cache_Controller.IS.Data_Exclusive::total     38423883                       (Unspecified)
board.cache_hierarchy.ruby_system.L1Cache_Controller.IS.DataS_fromL1 |      767210     46.55%     46.55% |      880976     53.45%    100.00% (Unspecified)
board.cache_hierarchy.ruby_system.L1Cache_Controller.IS.DataS_fromL1::total      1648186                       (Unspecified)
board.cache_hierarchy.ruby_system.L1Cache_Controller.IS.Data_all_Acks |    46912106     50.61%     50.61% |    45774928     49.39%    100.00% (Unspecified)
board.cache_hierarchy.ruby_system.L1Cache_Controller.IS.Data_all_Acks::total     92687034                       (Unspecified)
board.cache_hierarchy.ruby_system.L1Cache_Controller.IM.Inv |           1     25.00%     25.00% |           3     75.00%    100.00% (Unspecified)
board.cache_hierarchy.ruby_system.L1Cache_Controller.IM.Inv::total            4                       (Unspecified)
board.cache_hierarchy.ruby_system.L1Cache_Controller.IM.L1_Replacement |         439     50.58%     50.58% |         429     49.42%    100.00% (Unspecified)
board.cache_hierarchy.ruby_system.L1Cache_Controller.IM.L1_Replacement::total          868                       (Unspecified)
board.cache_hierarchy.ruby_system.L1Cache_Controller.IM.Data |        2582     77.68%     77.68% |         742     22.32%    100.00% (Unspecified)
board.cache_hierarchy.ruby_system.L1Cache_Controller.IM.Data::total         3324                       (Unspecified)
board.cache_hierarchy.ruby_system.L1Cache_Controller.IM.Data_all_Acks |     6463710     48.95%     48.95% |     6741790     51.05%    100.00% (Unspecified)
board.cache_hierarchy.ruby_system.L1Cache_Controller.IM.Data_all_Acks::total     13205500                       (Unspecified)
board.cache_hierarchy.ruby_system.L1Cache_Controller.IM.Ack |           2     50.00%     50.00% |           2     50.00%    100.00% (Unspecified)
board.cache_hierarchy.ruby_system.L1Cache_Controller.IM.Ack::total            4                       (Unspecified)
board.cache_hierarchy.ruby_system.L1Cache_Controller.SM.Inv |         417     21.58%     21.58% |        1515     78.42%    100.00% (Unspecified)
board.cache_hierarchy.ruby_system.L1Cache_Controller.SM.Inv::total         1932                       (Unspecified)
board.cache_hierarchy.ruby_system.L1Cache_Controller.SM.L1_Replacement |           0      0.00%      0.00% |           1    100.00%    100.00% (Unspecified)
board.cache_hierarchy.ruby_system.L1Cache_Controller.SM.L1_Replacement::total            1                       (Unspecified)
board.cache_hierarchy.ruby_system.L1Cache_Controller.SM.Ack |      186624     55.62%     55.62% |      148884     44.38%    100.00% (Unspecified)
board.cache_hierarchy.ruby_system.L1Cache_Controller.SM.Ack::total       335508                       (Unspecified)
board.cache_hierarchy.ruby_system.L1Cache_Controller.SM.Ack_all |      189234     55.84%     55.84% |      149649     44.16%    100.00% (Unspecified)
board.cache_hierarchy.ruby_system.L1Cache_Controller.SM.Ack_all::total       338883                       (Unspecified)
board.cache_hierarchy.ruby_system.L1Cache_Controller.IS_I.Data_Exclusive |          87     56.86%     56.86% |          66     43.14%    100.00% (Unspecified)
board.cache_hierarchy.ruby_system.L1Cache_Controller.IS_I.Data_Exclusive::total          153                       (Unspecified)
board.cache_hierarchy.ruby_system.L1Cache_Controller.IS_I.DataS_fromL1 |           0      0.00%      0.00% |           1    100.00%    100.00% (Unspecified)
board.cache_hierarchy.ruby_system.L1Cache_Controller.IS_I.DataS_fromL1::total            1                       (Unspecified)
board.cache_hierarchy.ruby_system.L1Cache_Controller.IS_I.Data_all_Acks |         458     54.20%     54.20% |         387     45.80%    100.00% (Unspecified)
board.cache_hierarchy.ruby_system.L1Cache_Controller.IS_I.Data_all_Acks::total          845                       (Unspecified)
board.cache_hierarchy.ruby_system.L1Cache_Controller.M_I.Load |        2778     55.86%     55.86% |        2195     44.14%    100.00% (Unspecified)
board.cache_hierarchy.ruby_system.L1Cache_Controller.M_I.Load::total         4973                       (Unspecified)
board.cache_hierarchy.ruby_system.L1Cache_Controller.M_I.Ifetch |         630     57.59%     57.59% |         464     42.41%    100.00% (Unspecified)
board.cache_hierarchy.ruby_system.L1Cache_Controller.M_I.Ifetch::total         1094                       (Unspecified)
board.cache_hierarchy.ruby_system.L1Cache_Controller.M_I.Store |         221     57.25%     57.25% |         165     42.75%    100.00% (Unspecified)
board.cache_hierarchy.ruby_system.L1Cache_Controller.M_I.Store::total          386                       (Unspecified)
board.cache_hierarchy.ruby_system.L1Cache_Controller.M_I.Inv |         980     34.54%     34.54% |        1857     65.46%    100.00% (Unspecified)
board.cache_hierarchy.ruby_system.L1Cache_Controller.M_I.Inv::total         2837                       (Unspecified)
board.cache_hierarchy.ruby_system.L1Cache_Controller.M_I.Fwd_GETX |           4     25.00%     25.00% |          12     75.00%    100.00% (Unspecified)
board.cache_hierarchy.ruby_system.L1Cache_Controller.M_I.Fwd_GETX::total           16                       (Unspecified)
board.cache_hierarchy.ruby_system.L1Cache_Controller.M_I.Fwd_GETS |          73     52.52%     52.52% |          66     47.48%    100.00% (Unspecified)
board.cache_hierarchy.ruby_system.L1Cache_Controller.M_I.Fwd_GETS::total          139                       (Unspecified)
board.cache_hierarchy.ruby_system.L1Cache_Controller.M_I.Fwd_GET_INSTR |           7     30.43%     30.43% |          16     69.57%    100.00% (Unspecified)
board.cache_hierarchy.ruby_system.L1Cache_Controller.M_I.Fwd_GET_INSTR::total           23                       (Unspecified)
board.cache_hierarchy.ruby_system.L1Cache_Controller.M_I.WB_Ack |    22192147     50.80%     50.80% |    21497135     49.20%    100.00% (Unspecified)
board.cache_hierarchy.ruby_system.L1Cache_Controller.M_I.WB_Ack::total     43689282                       (Unspecified)
board.cache_hierarchy.ruby_system.L1Cache_Controller.SINK_WB_ACK.Load |           0      0.00%      0.00% |           4    100.00%    100.00% (Unspecified)
board.cache_hierarchy.ruby_system.L1Cache_Controller.SINK_WB_ACK.Load::total            4                       (Unspecified)
board.cache_hierarchy.ruby_system.L1Cache_Controller.SINK_WB_ACK.WB_Ack |        1064     35.29%     35.29% |        1951     64.71%    100.00% (Unspecified)
board.cache_hierarchy.ruby_system.L1Cache_Controller.SINK_WB_ACK.WB_Ack::total         3015                       (Unspecified)
board.cache_hierarchy.ruby_system.L2Cache_Controller.L1_GET_INSTR     90278462      0.00%      0.00% (Unspecified)
board.cache_hierarchy.ruby_system.L2Cache_Controller.L1_GETS     42522373      0.00%      0.00% (Unspecified)
board.cache_hierarchy.ruby_system.L2Cache_Controller.L1_GETX     13216241      0.00%      0.00% (Unspecified)
board.cache_hierarchy.ruby_system.L2Cache_Controller.L1_UPGRADE       342715      0.00%      0.00% (Unspecified)
board.cache_hierarchy.ruby_system.L2Cache_Controller.L1_PUTX     43689621      0.00%      0.00% (Unspecified)
board.cache_hierarchy.ruby_system.L2Cache_Controller.L1_PUTX_old         5650      0.00%      0.00% (Unspecified)
board.cache_hierarchy.ruby_system.L2Cache_Controller.L2_Replacement     13213202      0.00%      0.00% (Unspecified)
board.cache_hierarchy.ruby_system.L2Cache_Controller.L2_Replacement_clean     77056325      0.00%      0.00% (Unspecified)
board.cache_hierarchy.ruby_system.L2Cache_Controller.Mem_Data     90340234      0.00%      0.00% (Unspecified)
board.cache_hierarchy.ruby_system.L2Cache_Controller.Mem_Ack     90336139      0.00%      0.00% (Unspecified)
board.cache_hierarchy.ruby_system.L2Cache_Controller.WB_Data      3394978      0.00%      0.00% (Unspecified)
board.cache_hierarchy.ruby_system.L2Cache_Controller.WB_Data_clean      1255142      0.00%      0.00% (Unspecified)
board.cache_hierarchy.ruby_system.L2Cache_Controller.Ack     13758943      0.00%      0.00% (Unspecified)
board.cache_hierarchy.ruby_system.L2Cache_Controller.Ack_all     57284468      0.00%      0.00% (Unspecified)
board.cache_hierarchy.ruby_system.L2Cache_Controller.Unblock      1648187      0.00%      0.00% (Unspecified)
board.cache_hierarchy.ruby_system.L2Cache_Controller.Exclusive_Unblock     51968419      0.00%      0.00% (Unspecified)
board.cache_hierarchy.ruby_system.L2Cache_Controller.MEM_Inv       133224      0.00%      0.00% (Unspecified)
board.cache_hierarchy.ruby_system.L2Cache_Controller.NP.L1_GET_INSTR     52128518      0.00%      0.00% (Unspecified)
board.cache_hierarchy.ruby_system.L2Cache_Controller.NP.L1_GETS     27143907      0.00%      0.00% (Unspecified)
board.cache_hierarchy.ruby_system.L2Cache_Controller.NP.L1_GETX     11067810      0.00%      0.00% (Unspecified)
board.cache_hierarchy.ruby_system.L2Cache_Controller.NP.L1_PUTX_old         2797      0.00%      0.00% (Unspecified)
board.cache_hierarchy.ruby_system.L2Cache_Controller.SS.L1_GET_INSTR     36229380      0.00%      0.00% (Unspecified)
board.cache_hierarchy.ruby_system.L2Cache_Controller.SS.L1_GETS      1753414      0.00%      0.00% (Unspecified)
board.cache_hierarchy.ruby_system.L2Cache_Controller.SS.L1_GETX         3335      0.00%      0.00% (Unspecified)
board.cache_hierarchy.ruby_system.L2Cache_Controller.SS.L1_UPGRADE       335559      0.00%      0.00% (Unspecified)
board.cache_hierarchy.ruby_system.L2Cache_Controller.SS.L1_PUTX          162      0.00%      0.00% (Unspecified)
board.cache_hierarchy.ruby_system.L2Cache_Controller.SS.L2_Replacement       120526      0.00%      0.00% (Unspecified)
board.cache_hierarchy.ruby_system.L2Cache_Controller.SS.L2_Replacement_clean     53648634      0.00%      0.00% (Unspecified)
board.cache_hierarchy.ruby_system.L2Cache_Controller.M.L1_GET_INSTR         1997      0.00%      0.00% (Unspecified)
board.cache_hierarchy.ruby_system.L2Cache_Controller.M.L1_GETS     11610336      0.00%      0.00% (Unspecified)
board.cache_hierarchy.ruby_system.L2Cache_Controller.M.L1_GETX      2024972      0.00%      0.00% (Unspecified)
board.cache_hierarchy.ruby_system.L2Cache_Controller.M.L2_Replacement     12429219      0.00%      0.00% (Unspecified)
board.cache_hierarchy.ruby_system.L2Cache_Controller.M.L2_Replacement_clean     17563253      0.00%      0.00% (Unspecified)
board.cache_hierarchy.ruby_system.L2Cache_Controller.M.MEM_Inv        57266      0.00%      0.00% (Unspecified)
board.cache_hierarchy.ruby_system.L2Cache_Controller.MT.L1_GET_INSTR          123      0.00%      0.00% (Unspecified)
board.cache_hierarchy.ruby_system.L2Cache_Controller.MT.L1_GETS      1648064      0.00%      0.00% (Unspecified)
board.cache_hierarchy.ruby_system.L2Cache_Controller.MT.L1_GETX       112707      0.00%      0.00% (Unspecified)
board.cache_hierarchy.ruby_system.L2Cache_Controller.MT.L1_PUTX     43689282      0.00%      0.00% (Unspecified)
board.cache_hierarchy.ruby_system.L2Cache_Controller.MT.L1_PUTX_old           16      0.00%      0.00% (Unspecified)
board.cache_hierarchy.ruby_system.L2Cache_Controller.MT.L2_Replacement       663457      0.00%      0.00% (Unspecified)
board.cache_hierarchy.ruby_system.L2Cache_Controller.MT.L2_Replacement_clean      5844438      0.00%      0.00% (Unspecified)
board.cache_hierarchy.ruby_system.L2Cache_Controller.MT.MEM_Inv         9346      0.00%      0.00% (Unspecified)
board.cache_hierarchy.ruby_system.L2Cache_Controller.M_I.L1_GET_INSTR         2996      0.00%      0.00% (Unspecified)
board.cache_hierarchy.ruby_system.L2Cache_Controller.M_I.L1_GETS        12604      0.00%      0.00% (Unspecified)
board.cache_hierarchy.ruby_system.L2Cache_Controller.M_I.L1_GETX         5743      0.00%      0.00% (Unspecified)
board.cache_hierarchy.ruby_system.L2Cache_Controller.M_I.L1_PUTX_old           40      0.00%      0.00% (Unspecified)
board.cache_hierarchy.ruby_system.L2Cache_Controller.M_I.Mem_Ack     90336139      0.00%      0.00% (Unspecified)
board.cache_hierarchy.ruby_system.L2Cache_Controller.M_I.MEM_Inv        57266      0.00%      0.00% (Unspecified)
board.cache_hierarchy.ruby_system.L2Cache_Controller.MT_I.L1_GETX            1      0.00%      0.00% (Unspecified)
board.cache_hierarchy.ruby_system.L2Cache_Controller.MT_I.L1_PUTX_old          318      0.00%      0.00% (Unspecified)
board.cache_hierarchy.ruby_system.L2Cache_Controller.MT_I.WB_Data       558148      0.00%      0.00% (Unspecified)
board.cache_hierarchy.ruby_system.L2Cache_Controller.MT_I.WB_Data_clean           90      0.00%      0.00% (Unspecified)
board.cache_hierarchy.ruby_system.L2Cache_Controller.MT_I.Ack_all       114565      0.00%      0.00% (Unspecified)
board.cache_hierarchy.ruby_system.L2Cache_Controller.MT_I.MEM_Inv         9346      0.00%      0.00% (Unspecified)
board.cache_hierarchy.ruby_system.L2Cache_Controller.MCT_I.L1_GETS           68      0.00%      0.00% (Unspecified)
board.cache_hierarchy.ruby_system.L2Cache_Controller.MCT_I.L1_GETX            1      0.00%      0.00% (Unspecified)
board.cache_hierarchy.ruby_system.L2Cache_Controller.MCT_I.L1_PUTX_old         2479      0.00%      0.00% (Unspecified)
board.cache_hierarchy.ruby_system.L2Cache_Controller.MCT_I.WB_Data      2442177      0.00%      0.00% (Unspecified)
board.cache_hierarchy.ruby_system.L2Cache_Controller.MCT_I.WB_Data_clean         1518      0.00%      0.00% (Unspecified)
board.cache_hierarchy.ruby_system.L2Cache_Controller.MCT_I.Ack_all      3400743      0.00%      0.00% (Unspecified)
board.cache_hierarchy.ruby_system.L2Cache_Controller.I_I.L1_GET_INSTR         1287      0.00%      0.00% (Unspecified)
board.cache_hierarchy.ruby_system.L2Cache_Controller.I_I.L1_GETS          159      0.00%      0.00% (Unspecified)
board.cache_hierarchy.ruby_system.L2Cache_Controller.I_I.Ack     13638652      0.00%      0.00% (Unspecified)
board.cache_hierarchy.ruby_system.L2Cache_Controller.I_I.Ack_all     53648634      0.00%      0.00% (Unspecified)
board.cache_hierarchy.ruby_system.L2Cache_Controller.S_I.L1_GETS            1      0.00%      0.00% (Unspecified)
board.cache_hierarchy.ruby_system.L2Cache_Controller.S_I.Ack       120291      0.00%      0.00% (Unspecified)
board.cache_hierarchy.ruby_system.L2Cache_Controller.S_I.Ack_all       120526      0.00%      0.00% (Unspecified)
board.cache_hierarchy.ruby_system.L2Cache_Controller.ISS.L1_GET_INSTR            5      0.00%      0.00% (Unspecified)
board.cache_hierarchy.ruby_system.L2Cache_Controller.ISS.L1_GETS       330201      0.00%      0.00% (Unspecified)
board.cache_hierarchy.ruby_system.L2Cache_Controller.ISS.L1_GETX           96      0.00%      0.00% (Unspecified)
board.cache_hierarchy.ruby_system.L2Cache_Controller.ISS.Mem_Data     26813700      0.00%      0.00% (Unspecified)
board.cache_hierarchy.ruby_system.L2Cache_Controller.IS.L1_GET_INSTR      1914156      0.00%      0.00% (Unspecified)
board.cache_hierarchy.ruby_system.L2Cache_Controller.IS.L1_GETS            2      0.00%      0.00% (Unspecified)
board.cache_hierarchy.ruby_system.L2Cache_Controller.IS.Mem_Data     52458724      0.00%      0.00% (Unspecified)
board.cache_hierarchy.ruby_system.L2Cache_Controller.IM.L1_GETS           84      0.00%      0.00% (Unspecified)
board.cache_hierarchy.ruby_system.L2Cache_Controller.IM.L1_GETX          966      0.00%      0.00% (Unspecified)
board.cache_hierarchy.ruby_system.L2Cache_Controller.IM.Mem_Data     11067810      0.00%      0.00% (Unspecified)
board.cache_hierarchy.ruby_system.L2Cache_Controller.SS_MB.L1_GETS        15478      0.00%      0.00% (Unspecified)
board.cache_hierarchy.ruby_system.L2Cache_Controller.SS_MB.L1_GETX          249      0.00%      0.00% (Unspecified)
board.cache_hierarchy.ruby_system.L2Cache_Controller.SS_MB.L1_UPGRADE         1932      0.00%      0.00% (Unspecified)
board.cache_hierarchy.ruby_system.L2Cache_Controller.SS_MB.Exclusive_Unblock       338894      0.00%      0.00% (Unspecified)
board.cache_hierarchy.ruby_system.L2Cache_Controller.MT_MB.L1_GETS         8055      0.00%      0.00% (Unspecified)
board.cache_hierarchy.ruby_system.L2Cache_Controller.MT_MB.L1_GETX          361      0.00%      0.00% (Unspecified)
board.cache_hierarchy.ruby_system.L2Cache_Controller.MT_MB.L1_PUTX           16      0.00%      0.00% (Unspecified)
board.cache_hierarchy.ruby_system.L2Cache_Controller.MT_MB.Exclusive_Unblock     51629525      0.00%      0.00% (Unspecified)
board.cache_hierarchy.ruby_system.L2Cache_Controller.MT_IIB.L1_PUTX          161      0.00%      0.00% (Unspecified)
board.cache_hierarchy.ruby_system.L2Cache_Controller.MT_IIB.WB_Data       392392      0.00%      0.00% (Unspecified)
board.cache_hierarchy.ruby_system.L2Cache_Controller.MT_IIB.WB_Data_clean      1250794      0.00%      0.00% (Unspecified)
board.cache_hierarchy.ruby_system.L2Cache_Controller.MT_IIB.Unblock         5001      0.00%      0.00% (Unspecified)
board.cache_hierarchy.ruby_system.L2Cache_Controller.MT_IB.WB_Data         2261      0.00%      0.00% (Unspecified)
board.cache_hierarchy.ruby_system.L2Cache_Controller.MT_IB.WB_Data_clean         2740      0.00%      0.00% (Unspecified)
board.cache_hierarchy.ruby_system.L2Cache_Controller.MT_SB.L1_UPGRADE         5224      0.00%      0.00% (Unspecified)
board.cache_hierarchy.ruby_system.L2Cache_Controller.MT_SB.Unblock      1643186      0.00%      0.00% (Unspecified)
board.cache_hierarchy.ruby_system.RequestType.LD.latency_hist_seqr::bucket_size          512                       (Unspecified)
board.cache_hierarchy.ruby_system.RequestType.LD.latency_hist_seqr::max_bucket         5119                       (Unspecified)
board.cache_hierarchy.ruby_system.RequestType.LD.latency_hist_seqr::samples    886441639                       (Unspecified)
board.cache_hierarchy.ruby_system.RequestType.LD.latency_hist_seqr::mean     8.214467                       (Unspecified)
board.cache_hierarchy.ruby_system.RequestType.LD.latency_hist_seqr::gmean     1.236653                       (Unspecified)
board.cache_hierarchy.ruby_system.RequestType.LD.latency_hist_seqr::stdev    43.321099                       (Unspecified)
board.cache_hierarchy.ruby_system.RequestType.LD.latency_hist_seqr |   885823955     99.93%     99.93% |      551523      0.06%     99.99% |       63825      0.01%    100.00% |        1840      0.00%    100.00% |         358      0.00%    100.00% |         105      0.00%    100.00% |          21      0.00%    100.00% |          10      0.00%    100.00% |           2      0.00%    100.00% |           0      0.00%    100.00% (Unspecified)
board.cache_hierarchy.ruby_system.RequestType.LD.latency_hist_seqr::total    886441639                       (Unspecified)
board.cache_hierarchy.ruby_system.RequestType.LD.hit_latency_hist_seqr::bucket_size            1                       (Unspecified)
board.cache_hierarchy.ruby_system.RequestType.LD.hit_latency_hist_seqr::max_bucket            9                       (Unspecified)
board.cache_hierarchy.ruby_system.RequestType.LD.hit_latency_hist_seqr::samples    843977230                       (Unspecified)
board.cache_hierarchy.ruby_system.RequestType.LD.hit_latency_hist_seqr::mean     1.000852                       (Unspecified)
board.cache_hierarchy.ruby_system.RequestType.LD.hit_latency_hist_seqr::gmean     1.000591                       (Unspecified)
board.cache_hierarchy.ruby_system.RequestType.LD.hit_latency_hist_seqr::stdev     0.029222                       (Unspecified)
board.cache_hierarchy.ruby_system.RequestType.LD.hit_latency_hist_seqr |           0      0.00%      0.00% |   843258933     99.91%     99.91% |      717354      0.08%    100.00% |         911      0.00%    100.00% |          32      0.00%    100.00% |           0      0.00%    100.00% |           0      0.00%    100.00% |           0      0.00%    100.00% |           0      0.00%    100.00% |           0      0.00%    100.00% (Unspecified)
board.cache_hierarchy.ruby_system.RequestType.LD.hit_latency_hist_seqr::total    843977230                       (Unspecified)
board.cache_hierarchy.ruby_system.RequestType.LD.miss_latency_hist_seqr::bucket_size          512                       (Unspecified)
board.cache_hierarchy.ruby_system.RequestType.LD.miss_latency_hist_seqr::max_bucket         5119                       (Unspecified)
board.cache_hierarchy.ruby_system.RequestType.LD.miss_latency_hist_seqr::samples     42464409                       (Unspecified)
board.cache_hierarchy.ruby_system.RequestType.LD.miss_latency_hist_seqr::mean   151.584571                       (Unspecified)
board.cache_hierarchy.ruby_system.RequestType.LD.miss_latency_hist_seqr::gmean    83.285858                       (Unspecified)
board.cache_hierarchy.ruby_system.RequestType.LD.miss_latency_hist_seqr::stdev   132.616482                       (Unspecified)
board.cache_hierarchy.ruby_system.RequestType.LD.miss_latency_hist_seqr |    41846725     98.55%     98.55% |      551523      1.30%     99.84% |       63825      0.15%     99.99% |        1840      0.00%    100.00% |         358      0.00%    100.00% |         105      0.00%    100.00% |          21      0.00%    100.00% |          10      0.00%    100.00% |           2      0.00%    100.00% |           0      0.00%    100.00% (Unspecified)
board.cache_hierarchy.ruby_system.RequestType.LD.miss_latency_hist_seqr::total     42464409                       (Unspecified)
board.cache_hierarchy.ruby_system.RequestType.ST.latency_hist_seqr::bucket_size          512                       (Unspecified)
board.cache_hierarchy.ruby_system.RequestType.ST.latency_hist_seqr::max_bucket         5119                       (Unspecified)
board.cache_hierarchy.ruby_system.RequestType.ST.latency_hist_seqr::samples    523434156                       (Unspecified)
board.cache_hierarchy.ruby_system.RequestType.ST.latency_hist_seqr::mean     4.914902                       (Unspecified)
board.cache_hierarchy.ruby_system.RequestType.ST.latency_hist_seqr::gmean     1.131000                       (Unspecified)
board.cache_hierarchy.ruby_system.RequestType.ST.latency_hist_seqr::stdev    31.124425                       (Unspecified)
board.cache_hierarchy.ruby_system.RequestType.ST.latency_hist_seqr |   523230186     99.96%     99.96% |      184600      0.04%    100.00% |       18575      0.00%    100.00% |         627      0.00%    100.00% |         135      0.00%    100.00% |          27      0.00%    100.00% |           5      0.00%    100.00% |           0      0.00%    100.00% |           1      0.00%    100.00% |           0      0.00%    100.00% (Unspecified)
board.cache_hierarchy.ruby_system.RequestType.ST.latency_hist_seqr::total    523434156                       (Unspecified)
board.cache_hierarchy.ruby_system.RequestType.ST.hit_latency_hist_seqr::bucket_size          256                       (Unspecified)
board.cache_hierarchy.ruby_system.RequestType.ST.hit_latency_hist_seqr::max_bucket         2559                       (Unspecified)
board.cache_hierarchy.ruby_system.RequestType.ST.hit_latency_hist_seqr::samples    511253212                       (Unspecified)
board.cache_hierarchy.ruby_system.RequestType.ST.hit_latency_hist_seqr::mean     1.042106                       (Unspecified)
board.cache_hierarchy.ruby_system.RequestType.ST.hit_latency_hist_seqr::gmean     1.011925                       (Unspecified)
board.cache_hierarchy.ruby_system.RequestType.ST.hit_latency_hist_seqr::stdev     2.525327                       (Unspecified)
board.cache_hierarchy.ruby_system.RequestType.ST.hit_latency_hist_seqr |   511245541    100.00%    100.00% |        6500      0.00%    100.00% |         526      0.00%    100.00% |         517      0.00%    100.00% |         111      0.00%    100.00% |          17      0.00%    100.00% |           0      0.00%    100.00% |           0      0.00%    100.00% |           0      0.00%    100.00% |           0      0.00%    100.00% (Unspecified)
board.cache_hierarchy.ruby_system.RequestType.ST.hit_latency_hist_seqr::total    511253212                       (Unspecified)
board.cache_hierarchy.ruby_system.RequestType.ST.miss_latency_hist_seqr::bucket_size          512                       (Unspecified)
board.cache_hierarchy.ruby_system.RequestType.ST.miss_latency_hist_seqr::max_bucket         5119                       (Unspecified)
board.cache_hierarchy.ruby_system.RequestType.ST.miss_latency_hist_seqr::samples     12180944                       (Unspecified)
board.cache_hierarchy.ruby_system.RequestType.ST.miss_latency_hist_seqr::mean   167.462162                       (Unspecified)
board.cache_hierarchy.ruby_system.RequestType.ST.miss_latency_hist_seqr::gmean   120.582294                       (Unspecified)
board.cache_hierarchy.ruby_system.RequestType.ST.miss_latency_hist_seqr::stdev   119.620413                       (Unspecified)
board.cache_hierarchy.ruby_system.RequestType.ST.miss_latency_hist_seqr |    11978145     98.34%     98.34% |      183557      1.51%     99.84% |       18447      0.15%     99.99% |         627      0.01%    100.00% |         135      0.00%    100.00% |          27      0.00%    100.00% |           5      0.00%    100.00% |           0      0.00%    100.00% |           1      0.00%    100.00% |           0      0.00%    100.00% (Unspecified)
board.cache_hierarchy.ruby_system.RequestType.ST.miss_latency_hist_seqr::total     12180944                       (Unspecified)
board.cache_hierarchy.ruby_system.RequestType.IFETCH.latency_hist_seqr::bucket_size          512                       (Unspecified)
board.cache_hierarchy.ruby_system.RequestType.IFETCH.latency_hist_seqr::max_bucket         5119                       (Unspecified)
board.cache_hierarchy.ruby_system.RequestType.IFETCH.latency_hist_seqr::samples    619387030                       (Unspecified)
board.cache_hierarchy.ruby_system.RequestType.IFETCH.latency_hist_seqr::mean    19.012318                       (Unspecified)
board.cache_hierarchy.ruby_system.RequestType.IFETCH.latency_hist_seqr::gmean     1.833934                       (Unspecified)
board.cache_hierarchy.ruby_system.RequestType.IFETCH.latency_hist_seqr::stdev    63.821065                       (Unspecified)
board.cache_hierarchy.ruby_system.RequestType.IFETCH.latency_hist_seqr |   618379815     99.84%     99.84% |      906743      0.15%     99.98% |       95655      0.02%    100.00% |        3761      0.00%    100.00% |         830      0.00%    100.00% |         178      0.00%    100.00% |          38      0.00%    100.00% |           7      0.00%    100.00% |           2      0.00%    100.00% |           1      0.00%    100.00% (Unspecified)
board.cache_hierarchy.ruby_system.RequestType.IFETCH.latency_hist_seqr::total    619387030                       (Unspecified)
board.cache_hierarchy.ruby_system.RequestType.IFETCH.hit_latency_hist_seqr::bucket_size            1                       (Unspecified)
board.cache_hierarchy.ruby_system.RequestType.IFETCH.hit_latency_hist_seqr::max_bucket            9                       (Unspecified)
board.cache_hierarchy.ruby_system.RequestType.IFETCH.hit_latency_hist_seqr::samples    529145046                       (Unspecified)
board.cache_hierarchy.ruby_system.RequestType.IFETCH.hit_latency_hist_seqr::mean     1.000002                       (Unspecified)
board.cache_hierarchy.ruby_system.RequestType.IFETCH.hit_latency_hist_seqr::gmean     1.000001                       (Unspecified)
board.cache_hierarchy.ruby_system.RequestType.IFETCH.hit_latency_hist_seqr::stdev     0.001467                       (Unspecified)
board.cache_hierarchy.ruby_system.RequestType.IFETCH.hit_latency_hist_seqr |           0      0.00%      0.00% |   529144015    100.00%    100.00% |         995      0.00%    100.00% |          36      0.00%    100.00% |           0      0.00%    100.00% |           0      0.00%    100.00% |           0      0.00%    100.00% |           0      0.00%    100.00% |           0      0.00%    100.00% |           0      0.00%    100.00% (Unspecified)
board.cache_hierarchy.ruby_system.RequestType.IFETCH.hit_latency_hist_seqr::total    529145046                       (Unspecified)
board.cache_hierarchy.ruby_system.RequestType.IFETCH.miss_latency_hist_seqr::bucket_size          512                       (Unspecified)
board.cache_hierarchy.ruby_system.RequestType.IFETCH.miss_latency_hist_seqr::max_bucket         5119                       (Unspecified)
board.cache_hierarchy.ruby_system.RequestType.IFETCH.miss_latency_hist_seqr::samples     90241984                       (Unspecified)
board.cache_hierarchy.ruby_system.RequestType.IFETCH.miss_latency_hist_seqr::mean   124.629764                       (Unspecified)
board.cache_hierarchy.ruby_system.RequestType.IFETCH.miss_latency_hist_seqr::gmean    64.233817                       (Unspecified)
board.cache_hierarchy.ruby_system.RequestType.IFETCH.miss_latency_hist_seqr::stdev   122.061300                       (Unspecified)
board.cache_hierarchy.ruby_system.RequestType.IFETCH.miss_latency_hist_seqr |    89234769     98.88%     98.88% |      906743      1.00%     99.89% |       95655      0.11%     99.99% |        3761      0.00%    100.00% |         830      0.00%    100.00% |         178      0.00%    100.00% |          38      0.00%    100.00% |           7      0.00%    100.00% |           2      0.00%    100.00% |           1      0.00%    100.00% (Unspecified)
board.cache_hierarchy.ruby_system.RequestType.IFETCH.miss_latency_hist_seqr::total     90241984                       (Unspecified)
board.cache_hierarchy.ruby_system.RequestType.RMW_Read.latency_hist_seqr::bucket_size          512                       (Unspecified)
board.cache_hierarchy.ruby_system.RequestType.RMW_Read.latency_hist_seqr::max_bucket         5119                       (Unspecified)
board.cache_hierarchy.ruby_system.RequestType.RMW_Read.latency_hist_seqr::samples     10927809                       (Unspecified)
board.cache_hierarchy.ruby_system.RequestType.RMW_Read.latency_hist_seqr::mean    15.907776                       (Unspecified)
board.cache_hierarchy.ruby_system.RequestType.RMW_Read.latency_hist_seqr::gmean     1.595231                       (Unspecified)
board.cache_hierarchy.ruby_system.RequestType.RMW_Read.latency_hist_seqr::stdev    62.373960                       (Unspecified)
board.cache_hierarchy.ruby_system.RequestType.RMW_Read.latency_hist_seqr |    10911748     99.85%     99.85% |       14093      0.13%     99.98% |        1865      0.02%    100.00% |          83      0.00%    100.00% |          14      0.00%    100.00% |           6      0.00%    100.00% |           0      0.00%    100.00% |           0      0.00%    100.00% |           0      0.00%    100.00% |           0      0.00%    100.00% (Unspecified)
board.cache_hierarchy.ruby_system.RequestType.RMW_Read.latency_hist_seqr::total     10927809                       (Unspecified)
board.cache_hierarchy.ruby_system.RequestType.RMW_Read.hit_latency_hist_seqr::bucket_size          256                       (Unspecified)
board.cache_hierarchy.ruby_system.RequestType.RMW_Read.hit_latency_hist_seqr::max_bucket         2559                       (Unspecified)
board.cache_hierarchy.ruby_system.RequestType.RMW_Read.hit_latency_hist_seqr::samples     10100493                       (Unspecified)
board.cache_hierarchy.ruby_system.RequestType.RMW_Read.hit_latency_hist_seqr::mean     2.647209                       (Unspecified)
board.cache_hierarchy.ruby_system.RequestType.RMW_Read.hit_latency_hist_seqr::gmean     1.127473                       (Unspecified)
board.cache_hierarchy.ruby_system.RequestType.RMW_Read.hit_latency_hist_seqr::stdev    19.601082                       (Unspecified)
board.cache_hierarchy.ruby_system.RequestType.RMW_Read.hit_latency_hist_seqr |    10091885     99.91%     99.91% |        7215      0.07%     99.99% |         679      0.01%     99.99% |         545      0.01%    100.00% |         129      0.00%    100.00% |          34      0.00%    100.00% |           5      0.00%    100.00% |           1      0.00%    100.00% |           0      0.00%    100.00% |           0      0.00%    100.00% (Unspecified)
board.cache_hierarchy.ruby_system.RequestType.RMW_Read.hit_latency_hist_seqr::total     10100493                       (Unspecified)
board.cache_hierarchy.ruby_system.RequestType.RMW_Read.miss_latency_hist_seqr::bucket_size          512                       (Unspecified)
board.cache_hierarchy.ruby_system.RequestType.RMW_Read.miss_latency_hist_seqr::max_bucket         5119                       (Unspecified)
board.cache_hierarchy.ruby_system.RequestType.RMW_Read.miss_latency_hist_seqr::samples       827316                       (Unspecified)
board.cache_hierarchy.ruby_system.RequestType.RMW_Read.miss_latency_hist_seqr::mean   177.802693                       (Unspecified)
board.cache_hierarchy.ruby_system.RequestType.RMW_Read.miss_latency_hist_seqr::gmean   110.381233                       (Unspecified)
board.cache_hierarchy.ruby_system.RequestType.RMW_Read.miss_latency_hist_seqr::stdev   135.430367                       (Unspecified)
board.cache_hierarchy.ruby_system.RequestType.RMW_Read.miss_latency_hist_seqr |      812648     98.23%     98.23% |       12869      1.56%     99.78% |        1702      0.21%     99.99% |          77      0.01%    100.00% |          14      0.00%    100.00% |           6      0.00%    100.00% |           0      0.00%    100.00% |           0      0.00%    100.00% |           0      0.00%    100.00% |           0      0.00%    100.00% (Unspecified)
board.cache_hierarchy.ruby_system.RequestType.RMW_Read.miss_latency_hist_seqr::total       827316                       (Unspecified)
board.cache_hierarchy.ruby_system.RequestType.Locked_RMW_Read.latency_hist_seqr::bucket_size          256                       (Unspecified)
board.cache_hierarchy.ruby_system.RequestType.Locked_RMW_Read.latency_hist_seqr::max_bucket         2559                       (Unspecified)
board.cache_hierarchy.ruby_system.RequestType.Locked_RMW_Read.latency_hist_seqr::samples      3493373                       (Unspecified)
board.cache_hierarchy.ruby_system.RequestType.Locked_RMW_Read.latency_hist_seqr::mean    19.196339                       (Unspecified)
board.cache_hierarchy.ruby_system.RequestType.Locked_RMW_Read.latency_hist_seqr::gmean     1.859785                       (Unspecified)
board.cache_hierarchy.ruby_system.RequestType.Locked_RMW_Read.latency_hist_seqr::stdev    66.367145                       (Unspecified)
board.cache_hierarchy.ruby_system.RequestType.Locked_RMW_Read.latency_hist_seqr |     3460948     99.07%     99.07% |       25715      0.74%     99.81% |        3560      0.10%     99.91% |        2569      0.07%     99.98% |         451      0.01%    100.00% |         111      0.00%    100.00% |           9      0.00%    100.00% |           3      0.00%    100.00% |           7      0.00%    100.00% |           0      0.00%    100.00% (Unspecified)
board.cache_hierarchy.ruby_system.RequestType.Locked_RMW_Read.latency_hist_seqr::total      3493373                       (Unspecified)
board.cache_hierarchy.ruby_system.RequestType.Locked_RMW_Read.hit_latency_hist_seqr::bucket_size          128                       (Unspecified)
board.cache_hierarchy.ruby_system.RequestType.Locked_RMW_Read.hit_latency_hist_seqr::max_bucket         1279                       (Unspecified)
board.cache_hierarchy.ruby_system.RequestType.Locked_RMW_Read.hit_latency_hist_seqr::samples      2968790                       (Unspecified)
board.cache_hierarchy.ruby_system.RequestType.Locked_RMW_Read.hit_latency_hist_seqr::mean     1.180908                       (Unspecified)
board.cache_hierarchy.ruby_system.RequestType.Locked_RMW_Read.hit_latency_hist_seqr::gmean     1.005225                       (Unspecified)
board.cache_hierarchy.ruby_system.RequestType.Locked_RMW_Read.hit_latency_hist_seqr::stdev     6.802709                       (Unspecified)
board.cache_hierarchy.ruby_system.RequestType.Locked_RMW_Read.hit_latency_hist_seqr |     2966883     99.94%     99.94% |        1691      0.06%     99.99% |          89      0.00%    100.00% |          63      0.00%    100.00% |          16      0.00%    100.00% |           2      0.00%    100.00% |          22      0.00%    100.00% |          17      0.00%    100.00% |           6      0.00%    100.00% |           1      0.00%    100.00% (Unspecified)
board.cache_hierarchy.ruby_system.RequestType.Locked_RMW_Read.hit_latency_hist_seqr::total      2968790                       (Unspecified)
board.cache_hierarchy.ruby_system.RequestType.Locked_RMW_Read.miss_latency_hist_seqr::bucket_size          256                       (Unspecified)
board.cache_hierarchy.ruby_system.RequestType.Locked_RMW_Read.miss_latency_hist_seqr::max_bucket         2559                       (Unspecified)
board.cache_hierarchy.ruby_system.RequestType.Locked_RMW_Read.miss_latency_hist_seqr::samples       524583                       (Unspecified)
board.cache_hierarchy.ruby_system.RequestType.Locked_RMW_Read.miss_latency_hist_seqr::mean   121.151667                       (Unspecified)
board.cache_hierarchy.ruby_system.RequestType.Locked_RMW_Read.miss_latency_hist_seqr::gmean    60.483095                       (Unspecified)
board.cache_hierarchy.ruby_system.RequestType.Locked_RMW_Read.miss_latency_hist_seqr::stdev   129.761915                       (Unspecified)
board.cache_hierarchy.ruby_system.RequestType.Locked_RMW_Read.miss_latency_hist_seqr |      492374     93.86%     93.86% |       25563      4.87%     98.73% |        3542      0.68%     99.41% |        2530      0.48%     99.89% |         444      0.08%     99.98% |         111      0.02%    100.00% |           9      0.00%    100.00% |           3      0.00%    100.00% |           7      0.00%    100.00% |           0      0.00%    100.00% (Unspecified)
board.cache_hierarchy.ruby_system.RequestType.Locked_RMW_Read.miss_latency_hist_seqr::total       524583                       (Unspecified)
board.cache_hierarchy.ruby_system.RequestType.Locked_RMW_Write.latency_hist_seqr::bucket_size            1                       (Unspecified)
board.cache_hierarchy.ruby_system.RequestType.Locked_RMW_Write.latency_hist_seqr::max_bucket            9                       (Unspecified)
board.cache_hierarchy.ruby_system.RequestType.Locked_RMW_Write.latency_hist_seqr::samples      3493403                       (Unspecified)
board.cache_hierarchy.ruby_system.RequestType.Locked_RMW_Write.latency_hist_seqr::mean            1                       (Unspecified)
board.cache_hierarchy.ruby_system.RequestType.Locked_RMW_Write.latency_hist_seqr::gmean            1                       (Unspecified)
board.cache_hierarchy.ruby_system.RequestType.Locked_RMW_Write.latency_hist_seqr |           0      0.00%      0.00% |     3493403    100.00%    100.00% |           0      0.00%    100.00% |           0      0.00%    100.00% |           0      0.00%    100.00% |           0      0.00%    100.00% |           0      0.00%    100.00% |           0      0.00%    100.00% |           0      0.00%    100.00% |           0      0.00%    100.00% (Unspecified)
board.cache_hierarchy.ruby_system.RequestType.Locked_RMW_Write.latency_hist_seqr::total      3493403                       (Unspecified)
board.cache_hierarchy.ruby_system.RequestType.Locked_RMW_Write.hit_latency_hist_seqr::bucket_size            1                       (Unspecified)
board.cache_hierarchy.ruby_system.RequestType.Locked_RMW_Write.hit_latency_hist_seqr::max_bucket            9                       (Unspecified)
board.cache_hierarchy.ruby_system.RequestType.Locked_RMW_Write.hit_latency_hist_seqr::samples      3493403                       (Unspecified)
board.cache_hierarchy.ruby_system.RequestType.Locked_RMW_Write.hit_latency_hist_seqr::mean            1                       (Unspecified)
board.cache_hierarchy.ruby_system.RequestType.Locked_RMW_Write.hit_latency_hist_seqr::gmean            1                       (Unspecified)
board.cache_hierarchy.ruby_system.RequestType.Locked_RMW_Write.hit_latency_hist_seqr |           0      0.00%      0.00% |     3493403    100.00%    100.00% |           0      0.00%    100.00% |           0      0.00%    100.00% |           0      0.00%    100.00% |           0      0.00%    100.00% |           0      0.00%    100.00% |           0      0.00%    100.00% |           0      0.00%    100.00% |           0      0.00%    100.00% (Unspecified)
board.cache_hierarchy.ruby_system.RequestType.Locked_RMW_Write.hit_latency_hist_seqr::total      3493403                       (Unspecified)
board.cache_hierarchy.ruby_system.directory_controllers.power_state.pwrStateResidencyTicks::UNDEFINED 38380362579973                       # Cumulative time (in ticks) in various power states (Tick)
board.cache_hierarchy.ruby_system.directory_controllers.requestToDir.m_buf_msgs     0.000794                       # Average number of messages in buffer (Unspecified)
board.cache_hierarchy.ruby_system.directory_controllers.requestToDir.m_stall_time   194.345498                       # Average number of cycles messages are stalled in this MB (Unspecified)
board.cache_hierarchy.ruby_system.directory_controllers.requestToMemory.m_buf_msgs     0.004267                       # Average number of messages in buffer (Unspecified)
board.cache_hierarchy.ruby_system.directory_controllers.requestToMemory.m_stall_time    61.923892                       # Average number of cycles messages are stalled in this MB (Unspecified)
board.cache_hierarchy.ruby_system.directory_controllers.responseFromDir.m_buf_msgs     0.001581                       # Average number of messages in buffer (Unspecified)
board.cache_hierarchy.ruby_system.directory_controllers.responseFromDir.m_stall_time    29.261420                       # Average number of cycles messages are stalled in this MB (Unspecified)
board.cache_hierarchy.ruby_system.directory_controllers.responseFromMemory.m_buf_msgs     0.001390                       # Average number of messages in buffer (Unspecified)
board.cache_hierarchy.ruby_system.directory_controllers.responseFromMemory.m_stall_time    29.259028                       # Average number of cycles messages are stalled in this MB (Unspecified)
board.cache_hierarchy.ruby_system.directory_controllers.responseToDir.m_buf_msgs     0.000784                       # Average number of messages in buffer (Unspecified)
board.cache_hierarchy.ruby_system.directory_controllers.responseToDir.m_stall_time   177.204091                       # Average number of cycles messages are stalled in this MB (Unspecified)
board.cache_hierarchy.ruby_system.dma_controllers0.dma_sequencer.power_state.pwrStateResidencyTicks::UNDEFINED 38380362579973                       # Cumulative time (in ticks) in various power states (Tick)
board.cache_hierarchy.ruby_system.dma_controllers0.mandatoryQueue.m_buf_msgs     0.000010                       # Average number of messages in buffer (Unspecified)
board.cache_hierarchy.ruby_system.dma_controllers0.mandatoryQueue.m_stall_time    29.243834                       # Average number of cycles messages are stalled in this MB (Unspecified)
board.cache_hierarchy.ruby_system.dma_controllers0.power_state.pwrStateResidencyTicks::UNDEFINED 38380362579973                       # Cumulative time (in ticks) in various power states (Tick)
board.cache_hierarchy.ruby_system.dma_controllers0.requestToDir.m_buf_msgs     0.000060                       # Average number of messages in buffer (Unspecified)
board.cache_hierarchy.ruby_system.dma_controllers0.requestToDir.m_stall_time   175.463006                       # Average number of cycles messages are stalled in this MB (Unspecified)
board.cache_hierarchy.ruby_system.dma_controllers0.responseFromDir.m_buf_msgs     0.000010                       # Average number of messages in buffer (Unspecified)
board.cache_hierarchy.ruby_system.dma_controllers0.responseFromDir.m_stall_time   146.394327                       # Average number of cycles messages are stalled in this MB (Unspecified)
board.cache_hierarchy.ruby_system.dma_controllers1.dma_sequencer.power_state.pwrStateResidencyTicks::UNDEFINED 38380362579973                       # Cumulative time (in ticks) in various power states (Tick)
board.cache_hierarchy.ruby_system.dma_controllers1.power_state.pwrStateResidencyTicks::UNDEFINED 38380362579973                       # Cumulative time (in ticks) in various power states (Tick)
board.cache_hierarchy.ruby_system.l1_controllers0.fullyBusyCycles      7407672                       # cycles for which number of transistions == max transitions (Unspecified)
board.cache_hierarchy.ruby_system.l1_controllers0.delayHistogram::samples    134571250                       # delay_histogram (Unspecified)
board.cache_hierarchy.ruby_system.l1_controllers0.delayHistogram::mean     0.166066                       # delay_histogram (Unspecified)
board.cache_hierarchy.ruby_system.l1_controllers0.delayHistogram::stdev     1.141872                       # delay_histogram (Unspecified)
board.cache_hierarchy.ruby_system.l1_controllers0.delayHistogram::0-7    133312664     99.06%     99.06% # delay_histogram (Unspecified)
board.cache_hierarchy.ruby_system.l1_controllers0.delayHistogram::8-15      1148378      0.85%     99.92% # delay_histogram (Unspecified)
board.cache_hierarchy.ruby_system.l1_controllers0.delayHistogram::16-23        93739      0.07%     99.99% # delay_histogram (Unspecified)
board.cache_hierarchy.ruby_system.l1_controllers0.delayHistogram::24-31        14083      0.01%    100.00% # delay_histogram (Unspecified)
board.cache_hierarchy.ruby_system.l1_controllers0.delayHistogram::32-39         1984      0.00%    100.00% # delay_histogram (Unspecified)
board.cache_hierarchy.ruby_system.l1_controllers0.delayHistogram::40-47          282      0.00%    100.00% # delay_histogram (Unspecified)
board.cache_hierarchy.ruby_system.l1_controllers0.delayHistogram::48-55           79      0.00%    100.00% # delay_histogram (Unspecified)
board.cache_hierarchy.ruby_system.l1_controllers0.delayHistogram::56-63           31      0.00%    100.00% # delay_histogram (Unspecified)
board.cache_hierarchy.ruby_system.l1_controllers0.delayHistogram::64-71           10      0.00%    100.00% # delay_histogram (Unspecified)
board.cache_hierarchy.ruby_system.l1_controllers0.delayHistogram::total    134571250                       # delay_histogram (Unspecified)
board.cache_hierarchy.ruby_system.l1_controllers0.L1Dcache.m_demand_hits    695331431                       # Number of cache demand hits (Unspecified)
board.cache_hierarchy.ruby_system.l1_controllers0.L1Dcache.m_demand_misses     28408805                       # Number of cache demand misses (Unspecified)
board.cache_hierarchy.ruby_system.l1_controllers0.L1Dcache.m_demand_accesses    723740236                       # Number of cache demand accesses (Unspecified)
board.cache_hierarchy.ruby_system.l1_controllers0.L1Icache.m_demand_hits    268953761                       # Number of cache demand hits (Unspecified)
board.cache_hierarchy.ruby_system.l1_controllers0.L1Icache.m_demand_misses     45651796                       # Number of cache demand misses (Unspecified)
board.cache_hierarchy.ruby_system.l1_controllers0.L1Icache.m_demand_accesses    314605557                       # Number of cache demand accesses (Unspecified)
board.cache_hierarchy.ruby_system.l1_controllers0.mandatoryQueue.m_buf_msgs     0.009509                       # Average number of messages in buffer (Unspecified)
board.cache_hierarchy.ruby_system.l1_controllers0.mandatoryQueue.m_stall_time    29.283559                       # Average number of cycles messages are stalled in this MB (Unspecified)
board.cache_hierarchy.ruby_system.l1_controllers0.mandatoryQueue.m_stall_count         4937                       # Number of times messages were stalled (Unspecified)
board.cache_hierarchy.ruby_system.l1_controllers0.power_state.pwrStateResidencyTicks::UNDEFINED 38380362579973                       # Cumulative time (in ticks) in various power states (Tick)
board.cache_hierarchy.ruby_system.l1_controllers0.prefetcher.RubyPrefetcher.numMissObserved            0                       # Number of misses observed (Unspecified)
board.cache_hierarchy.ruby_system.l1_controllers0.prefetcher.RubyPrefetcher.numAllocatedStreams            0                       # Number of streams allocated for prefetching (Unspecified)
board.cache_hierarchy.ruby_system.l1_controllers0.prefetcher.RubyPrefetcher.numPrefetchRequested            0                       # Number of prefetch requests made (Unspecified)
board.cache_hierarchy.ruby_system.l1_controllers0.prefetcher.RubyPrefetcher.numHits            0                       # Number of prefetched blocks accessed (for the first time) (Unspecified)
board.cache_hierarchy.ruby_system.l1_controllers0.prefetcher.RubyPrefetcher.numPartialHits            0                       # Number of misses observed for a block being prefetched (Unspecified)
board.cache_hierarchy.ruby_system.l1_controllers0.prefetcher.RubyPrefetcher.numPagesCrossed            0                       # Number of prefetches across pages (Unspecified)
board.cache_hierarchy.ruby_system.l1_controllers0.prefetcher.RubyPrefetcher.numMissedPrefetchedBlocks            0                       # Number of misses for blocks that were prefetched, yet missed (Unspecified)
board.cache_hierarchy.ruby_system.l1_controllers0.requestFromL1Cache.m_buf_msgs     0.001670                       # Average number of messages in buffer (Unspecified)
board.cache_hierarchy.ruby_system.l1_controllers0.requestFromL1Cache.m_stall_time    58.509202                       # Average number of cycles messages are stalled in this MB (Unspecified)
board.cache_hierarchy.ruby_system.l1_controllers0.requestToL1Cache.m_buf_msgs    83.389130                       # Average number of messages in buffer (Unspecified)
board.cache_hierarchy.ruby_system.l1_controllers0.requestToL1Cache.m_stall_time   146.280714                       # Average number of cycles messages are stalled in this MB (Unspecified)
board.cache_hierarchy.ruby_system.l1_controllers0.responseFromL1Cache.m_buf_msgs     0.000677                       # Average number of messages in buffer (Unspecified)
board.cache_hierarchy.ruby_system.l1_controllers0.responseFromL1Cache.m_stall_time    58.509169                       # Average number of cycles messages are stalled in this MB (Unspecified)
board.cache_hierarchy.ruby_system.l1_controllers0.responseToL1Cache.m_buf_msgs     0.000837                       # Average number of messages in buffer (Unspecified)
board.cache_hierarchy.ruby_system.l1_controllers0.responseToL1Cache.m_stall_time   155.803805                       # Average number of cycles messages are stalled in this MB (Unspecified)
board.cache_hierarchy.ruby_system.l1_controllers0.sequencer.power_state.pwrStateResidencyTicks::UNDEFINED 38380362579973                       # Cumulative time (in ticks) in various power states (Tick)
board.cache_hierarchy.ruby_system.l1_controllers0.unblockFromL1Cache.m_buf_msgs     0.000236                       # Average number of messages in buffer (Unspecified)
board.cache_hierarchy.ruby_system.l1_controllers0.unblockFromL1Cache.m_stall_time    29.254600                       # Average number of cycles messages are stalled in this MB (Unspecified)
board.cache_hierarchy.ruby_system.l1_controllers1.fullyBusyCycles      6898995                       # cycles for which number of transistions == max transitions (Unspecified)
[...]
board.processor.cores3.core.fetch.nisnDist::stdev     2.639054                       # Number of instructions fetched each cycle (Total) (Count)
board.processor.cores3.core.fetch.nisnDist::underflows            0      0.00%      0.00% # Number of instructions fetched each cycle (Total) (Count)
board.processor.cores3.core.fetch.nisnDist::0   3267765220     80.63%     80.63% # Number of instructions fetched each cycle (Total) (Count)
board.processor.cores3.core.fetch.nisnDist::1     48771877      1.20%     81.84% # Number of instructions fetched each cycle (Total) (Count)
board.processor.cores3.core.fetch.nisnDist::2     42137261      1.04%     82.88% # Number of instructions fetched each cycle (Total) (Count)
board.processor.cores3.core.fetch.nisnDist::3     43349922      1.07%     83.95% # Number of instructions fetched each cycle (Total) (Count)
board.processor.cores3.core.fetch.nisnDist::4     95048103      2.35%     86.29% # Number of instructions fetched each cycle (Total) (Count)
board.processor.cores3.core.fetch.nisnDist::5     55171877      1.36%     87.65% # Number of instructions fetched each cycle (Total) (Count)
board.processor.cores3.core.fetch.nisnDist::6     36575583      0.90%     88.56% # Number of instructions fetched each cycle (Total) (Count)
board.processor.cores3.core.fetch.nisnDist::7     38095100      0.94%     89.50% # Number of instructions fetched each cycle (Total) (Count)
board.processor.cores3.core.fetch.nisnDist::8    425703280     10.50%    100.00% # Number of instructions fetched each cycle (Total) (Count)
board.processor.cores3.core.fetch.nisnDist::overflows            0      0.00%    100.00% # Number of instructions fetched each cycle (Total) (Count)
board.processor.cores3.core.fetch.nisnDist::min_value            0                       # Number of instructions fetched each cycle (Total) (Count)
board.processor.cores3.core.fetch.nisnDist::max_value            8                       # Number of instructions fetched each cycle (Total) (Count)
board.processor.cores3.core.fetch.nisnDist::total   4052618223                       # Number of instructions fetched each cycle (Total) (Count)
board.processor.cores3.core.fetch.branchRate     0.070712                       # Number of branch fetches per cycle (Ratio)
board.processor.cores3.core.fetch.rate       0.333004                       # Number of inst fetches per cycle ((Count/Cycle))
board.processor.cores3.core.iew.idleCycles            0                       # Number of cycles IEW is idle (Cycle)
board.processor.cores3.core.iew.squashCycles     42440370                       # Number of cycles IEW is squashing (Cycle)
board.processor.cores3.core.iew.blockCycles    443714512                       # Number of cycles IEW is blocking (Cycle)
board.processor.cores3.core.iew.unblockCycles    167458116                       # Number of cycles IEW is unblocking (Cycle)
board.processor.cores3.core.iew.dispatchedInsts   4089603519                       # Number of instructions dispatched to IQ (Count)
board.processor.cores3.core.iew.dispSquashedInsts      4427832                       # Number of squashed instructions skipped by dispatch (Count)
board.processor.cores3.core.iew.dispLoadInsts    551923137                       # Number of dispatched load instructions (Count)
board.processor.cores3.core.iew.dispStoreInsts    371930603                       # Number of dispatched store instructions (Count)
board.processor.cores3.core.iew.dispNonSpecInsts      6154751                       # Number of dispatched non-speculative instructions (Count)
board.processor.cores3.core.iew.iqFullEvents      2373092                       # Number of times the IQ has become full, causing a stall (Count)
board.processor.cores3.core.iew.lsqFullEvents    163320045                       # Number of times the LSQ has become full, causing a stall (Count)
board.processor.cores3.core.iew.memOrderViolationEvents      1384842                       # Number of memory order violations (Count)
board.processor.cores3.core.iew.predictedTakenIncorrect      8204175                       # Number of branches that were predicted taken incorrectly (Count)
board.processor.cores3.core.iew.predictedNotTakenIncorrect     35775927                       # Number of branches that were predicted not taken incorrectly (Count)
board.processor.cores3.core.iew.branchMispredicts     43980102                       # Number of branch mispredicts detected at execute (Count)
board.processor.cores3.core.iew.instsToCommit   3763604396                       # Cumulative count of insts sent to commit (Count)
board.processor.cores3.core.iew.writebackCount   3734310106                       # Cumulative count of insts written-back (Count)
board.processor.cores3.core.iew.producerInst   2596354085                       # Number of instructions producing a value (Count)
board.processor.cores3.core.iew.consumerInst   4422583163                       # Number of instructions consuming a value (Count)
board.processor.cores3.core.iew.wbRate       0.516751                       # Insts written-back per cycle ((Count/Cycle))
board.processor.cores3.core.iew.wbFanout     0.587067                       # Average fanout of values written-back ((Count/Count))
board.processor.cores3.core.lsq0.forwLoads     75391305                       # Number of loads that had data forwarded from stores (Count)
board.processor.cores3.core.lsq0.squashedLoads    151224389                       # Number of loads squashed (Count)
board.processor.cores3.core.lsq0.ignoredResponses       440531                       # Number of memory responses ignored because the instruction is squashed (Count)
board.processor.cores3.core.lsq0.memOrderViolation      1384842                       # Number of memory ordering violations (Count)
board.processor.cores3.core.lsq0.squashedStores    109975738                       # Number of stores squashed (Count)
board.processor.cores3.core.lsq0.rescheduledLoads       367386                       # Number of loads that were rescheduled (Count)
board.processor.cores3.core.lsq0.blockedByCache       557968                       # Number of times an access to memory failed due to the cache being blocked (Count)
board.processor.cores3.core.lsq0.loadToUse::samples    400098138                       # Distribution of cycle latency between the first time a load is issued and its completion (Unspecified)
board.processor.cores3.core.lsq0.loadToUse::mean    12.878184                       # Distribution of cycle latency between the first time a load is issued and its completion (Unspecified)
board.processor.cores3.core.lsq0.loadToUse::stdev    55.176173                       # Distribution of cycle latency between the first time a load is issued and its completion (Unspecified)
board.processor.cores3.core.lsq0.loadToUse::0-9    375692602     93.90%     93.90% # Distribution of cycle latency between the first time a load is issued and its completion (Unspecified)
board.processor.cores3.core.lsq0.loadToUse::10-19      5196349      1.30%     95.20% # Distribution of cycle latency between the first time a load is issued and its completion (Unspecified)
board.processor.cores3.core.lsq0.loadToUse::20-29      1890277      0.47%     95.67% # Distribution of cycle latency between the first time a load is issued and its completion (Unspecified)
board.processor.cores3.core.lsq0.loadToUse::30-39       381199      0.10%     95.77% # Distribution of cycle latency between the first time a load is issued and its completion (Unspecified)
board.processor.cores3.core.lsq0.loadToUse::40-49       296181      0.07%     95.84% # Distribution of cycle latency between the first time a load is issued and its completion (Unspecified)
board.processor.cores3.core.lsq0.loadToUse::50-59       284559      0.07%     95.91% # Distribution of cycle latency between the first time a load is issued and its completion (Unspecified)
board.processor.cores3.core.lsq0.loadToUse::60-69       128744      0.03%     95.94% # Distribution of cycle latency between the first time a load is issued and its completion (Unspecified)
board.processor.cores3.core.lsq0.loadToUse::70-79        69235      0.02%     95.96% # Distribution of cycle latency between the first time a load is issued and its completion (Unspecified)
board.processor.cores3.core.lsq0.loadToUse::80-89        82890      0.02%     95.98% # Distribution of cycle latency between the first time a load is issued and its completion (Unspecified)
board.processor.cores3.core.lsq0.loadToUse::90-99       119219      0.03%     96.01% # Distribution of cycle latency between the first time a load is issued and its completion (Unspecified)
board.processor.cores3.core.lsq0.loadToUse::100-109       125056      0.03%     96.04% # Distribution of cycle latency between the first time a load is issued and its completion (Unspecified)
board.processor.cores3.core.lsq0.loadToUse::110-119       135098      0.03%     96.08% # Distribution of cycle latency between the first time a load is issued and its completion (Unspecified)
board.processor.cores3.core.lsq0.loadToUse::120-129       166530      0.04%     96.12% # Distribution of cycle latency between the first time a load is issued and its completion (Unspecified)
board.processor.cores3.core.lsq0.loadToUse::130-139       422253      0.11%     96.22% # Distribution of cycle latency between the first time a load is issued and its completion (Unspecified)
board.processor.cores3.core.lsq0.loadToUse::140-149      2785479      0.70%     96.92% # Distribution of cycle latency between the first time a load is issued and its completion (Unspecified)
board.processor.cores3.core.lsq0.loadToUse::150-159      1071876      0.27%     97.19% # Distribution of cycle latency between the first time a load is issued and its completion (Unspecified)
board.processor.cores3.core.lsq0.loadToUse::160-169       722575      0.18%     97.37% # Distribution of cycle latency between the first time a load is issued and its completion (Unspecified)
board.processor.cores3.core.lsq0.loadToUse::170-179       317306      0.08%     97.45% # Distribution of cycle latency between the first time a load is issued and its completion (Unspecified)
board.processor.cores3.core.lsq0.loadToUse::180-189       760080      0.19%     97.64% # Distribution of cycle latency between the first time a load is issued and its completion (Unspecified)
board.processor.cores3.core.lsq0.loadToUse::190-199       466300      0.12%     97.75% # Distribution of cycle latency between the first time a load is issued and its completion (Unspecified)
board.processor.cores3.core.lsq0.loadToUse::200-209       345941      0.09%     97.84% # Distribution of cycle latency between the first time a load is issued and its completion (Unspecified)
board.processor.cores3.core.lsq0.loadToUse::210-219       361472      0.09%     97.93% # Distribution of cycle latency between the first time a load is issued and its completion (Unspecified)
board.processor.cores3.core.lsq0.loadToUse::220-229      1810521      0.45%     98.38% # Distribution of cycle latency between the first time a load is issued and its completion (Unspecified)
board.processor.cores3.core.lsq0.loadToUse::230-239      1754618      0.44%     98.82% # Distribution of cycle latency between the first time a load is issued and its completion (Unspecified)
board.processor.cores3.core.lsq0.loadToUse::240-249       828435      0.21%     99.03% # Distribution of cycle latency between the first time a load is issued and its completion (Unspecified)
board.processor.cores3.core.lsq0.loadToUse::250-259       459422      0.11%     99.14% # Distribution of cycle latency between the first time a load is issued and its completion (Unspecified)
board.processor.cores3.core.lsq0.loadToUse::260-269       281001      0.07%     99.21% # Distribution of cycle latency between the first time a load is issued and its completion (Unspecified)
board.processor.cores3.core.lsq0.loadToUse::270-279       219446      0.05%     99.27% # Distribution of cycle latency between the first time a load is issued and its completion (Unspecified)
board.processor.cores3.core.lsq0.loadToUse::280-289       174381      0.04%     99.31% # Distribution of cycle latency between the first time a load is issued and its completion (Unspecified)
board.processor.cores3.core.lsq0.loadToUse::290-299       149602      0.04%     99.35% # Distribution of cycle latency between the first time a load is issued and its completion (Unspecified)
board.processor.cores3.core.lsq0.loadToUse::overflows      2599491      0.65%    100.00% # Distribution of cycle latency between the first time a load is issued and its completion (Unspecified)
board.processor.cores3.core.lsq0.loadToUse::min_value            2                       # Distribution of cycle latency between the first time a load is issued and its completion (Unspecified)
board.processor.cores3.core.lsq0.loadToUse::max_value         4590                       # Distribution of cycle latency between the first time a load is issued and its completion (Unspecified)
board.processor.cores3.core.lsq0.loadToUse::total    400098138                       # Distribution of cycle latency between the first time a load is issued and its completion (Unspecified)
board.processor.cores3.core.mmu.dtb.rdAccesses    516138253                       # TLB accesses on read requests (Count)
board.processor.cores3.core.mmu.dtb.wrAccesses    336310207                       # TLB accesses on write requests (Count)
board.processor.cores3.core.mmu.dtb.rdMisses     10966346                       # TLB misses on read requests (Count)
board.processor.cores3.core.mmu.dtb.wrMisses      4120881                       # TLB misses on write requests (Count)
board.processor.cores3.core.mmu.dtb.walker.power_state.pwrStateResidencyTicks::UNDEFINED 38380362579973                       # Cumulative time (in ticks) in various power states (Tick)
board.processor.cores3.core.mmu.itb.rdAccesses            0                       # TLB accesses on read requests (Count)
board.processor.cores3.core.mmu.itb.wrAccesses    327885973                       # TLB accesses on write requests (Count)
board.processor.cores3.core.mmu.itb.rdMisses            0                       # TLB misses on read requests (Count)
board.processor.cores3.core.mmu.itb.wrMisses     12130504                       # TLB misses on write requests (Count)
board.processor.cores3.core.mmu.itb.walker.power_state.pwrStateResidencyTicks::UNDEFINED 38380362579973                       # Cumulative time (in ticks) in various power states (Tick)
board.processor.cores3.core.power_state.numTransitions        11230                       # Number of power state transitions (Count)
board.processor.cores3.core.power_state.ticksClkGated::samples         5615                       # Distribution of time spent in the clock gated state (Tick)
board.processor.cores3.core.power_state.ticksClkGated::mean 171574488.192520                       # Distribution of time spent in the clock gated state (Tick)
board.processor.cores3.core.power_state.ticksClkGated::stdev 228163657.325956                       # Distribution of time spent in the clock gated state (Tick)
board.processor.cores3.core.power_state.ticksClkGated::1000-5e+10         5615    100.00%    100.00% # Distribution of time spent in the clock gated state (Tick)
board.processor.cores3.core.power_state.ticksClkGated::min_value       150517                       # Distribution of time spent in the clock gated state (Tick)
board.processor.cores3.core.power_state.ticksClkGated::max_value    999222777                       # Distribution of time spent in the clock gated state (Tick)
board.processor.cores3.core.power_state.ticksClkGated::total         5615                       # Distribution of time spent in the clock gated state (Tick)
board.processor.cores3.core.power_state.pwrStateResidencyTicks::ON 2406444872632                       # Cumulative time (in ticks) in various power states (Tick)
board.processor.cores3.core.power_state.pwrStateResidencyTicks::CLK_GATED 963390751201                       # Cumulative time (in ticks) in various power states (Tick)
board.processor.cores3.core.rename.squashCycles     42440370                       # Number of cycles rename is squashing (Cycle)
board.processor.cores3.core.rename.idleCycles   1605656259                       # Number of cycles rename is idle (Cycle)
board.processor.cores3.core.rename.blockCycles    887544731                       # Number of cycles rename is blocking (Cycle)
board.processor.cores3.core.rename.serializeStallCycles    266384637                       # count of cycles rename stalled for serializing inst (Cycle)
board.processor.cores3.core.rename.runCycles    630751307                       # Number of cycles rename is running (Cycle)
board.processor.cores3.core.rename.unblockCycles    619840919                       # Number of cycles rename is unblocking (Cycle)
board.processor.cores3.core.rename.renamedInsts   4224508753                       # Number of instructions processed by rename (Count)
board.processor.cores3.core.rename.ROBFullEvents     16856555                       # Number of times rename has blocked due to ROB full (Count)
board.processor.cores3.core.rename.IQFullEvents    122103703                       # Number of times rename has blocked due to IQ full (Count)
board.processor.cores3.core.rename.LQFullEvents     39483913                       # Number of times rename has blocked due to LQ full (Count)
board.processor.cores3.core.rename.SQFullEvents    441499460                       # Number of times rename has blocked due to SQ full (Count)
board.processor.cores3.core.rename.fullRegistersEvents         1279                       # Number of times there has been no free registers (Count)
board.processor.cores3.core.rename.renamedOperands   4606410099                       # Number of destination operands rename has renamed (Count)
board.processor.cores3.core.rename.lookups  10543237505                       # Number of register rename lookups that rename has made (Count)
board.processor.cores3.core.rename.intLookups   6416411496                       # Number of integer rename lookups (Count)
board.processor.cores3.core.rename.fpLookups    307213504                       # Number of floating rename lookups (Count)
board.processor.cores3.core.rename.committedMaps   3472297435                       # Number of HB maps that are committed (Count)
board.processor.cores3.core.rename.undoneMaps   1134112647                       # Number of HB maps that are undone due to squashing (Count)
board.processor.cores3.core.rename.serializing      4219753                       # count of serializing insts renamed (Count)
board.processor.cores3.core.rename.tempSerializing      4188129                       # count of temporary serializing insts renamed (Count)
board.processor.cores3.core.rename.skidInsts    446924836                       # count of insts added to the skid buffer (Count)
board.processor.cores3.core.rob.reads      7798398265                       # The number of ROB reads (Count)
board.processor.cores3.core.rob.writes     8293230265                       # The number of ROB writes (Count)
board.processor.cores3.core.thread_0.numInsts   1573235234                       # Number of Instructions committed (Count)
board.processor.cores3.core.thread_0.numOps   3096261183                       # Number of Ops committed (Count)
board.processor.cores3.core.thread_0.numMemRefs            0                       # Number of Memory References (Count)
board.workload.inst.arm                             0                       # number of arm instructions executed (Count)
board.workload.inst.quiesce                         0                       # number of quiesce instructions executed (Count)

---------- End Simulation Statistics   ----------
