
---------- Begin Simulation Statistics ----------
simSeconds                                   2.297880                       # Number of seconds simulated (Second)
simTicks                                 2297879891595                       # Number of ticks simulated (Tick)
finalTick                                28746675759790                       # Number of ticks from beginning of simulation (restored from checkpoints and never reset) (Tick)
simFreq                                  1000000000000                       # The number of ticks per simulated second ((Tick/Second))
hostSeconds                                  52339.22                       # Real time elapsed on the host (Second)
hostTickRate                                 43903594                       # The number of ticks simulated per host second (ticks/s) ((Tick/Second))
hostMemory                                   10181084                       # Number of bytes of host memory used (Byte)
simInsts                                  10962342275                       # Number of instructions simulated (Count)
simOps                                    15142812323                       # Number of ops (including micro ops) simulated (Count)
hostInstRate                                   209448                       # Simulator instruction rate (inst/s) ((Count/Second))
hostOpRate                                     289321                       # Simulator op (including micro ops) rate (op/s) ((Count/Second))
board.cache_hierarchy.ruby_system.delayHistogram::bucket_size          256                       # delay histogram for all message (Unspecified)
board.cache_hierarchy.ruby_system.delayHistogram::max_bucket         2559                       # delay histogram for all message (Unspecified)
board.cache_hierarchy.ruby_system.delayHistogram::samples    811599992                       # delay histogram for all message (Unspecified)
board.cache_hierarchy.ruby_system.delayHistogram::mean     0.522059                       # delay histogram for all message (Unspecified)
board.cache_hierarchy.ruby_system.delayHistogram::stdev     2.213967                       # delay histogram for all message (Unspecified)
board.cache_hierarchy.ruby_system.delayHistogram |   811599463    100.00%    100.00% |         369      0.00%    100.00% |         101      0.00%    100.00% |          37      0.00%    100.00% |          16      0.00%    100.00% |           4      0.00%    100.00% |           2      0.00%    100.00% |           0      0.00%    100.00% |           0      0.00%    100.00% |           0      0.00%    100.00% # delay histogram for all message (Unspecified)
board.cache_hierarchy.ruby_system.delayHistogram::total    811599992                       # delay histogram for all message (Unspecified)
board.cache_hierarchy.ruby_system.m_outstandReqHistSeqr::bucket_size            2                       (Unspecified)
board.cache_hierarchy.ruby_system.m_outstandReqHistSeqr::max_bucket           19                       (Unspecified)
board.cache_hierarchy.ruby_system.m_outstandReqHistSeqr::samples   2696416181                       (Unspecified)
board.cache_hierarchy.ruby_system.m_outstandReqHistSeqr::mean     2.043792                       (Unspecified)
board.cache_hierarchy.ruby_system.m_outstandReqHistSeqr::gmean     1.713392                       (Unspecified)
board.cache_hierarchy.ruby_system.m_outstandReqHistSeqr::stdev     1.499829                       (Unspecified)
board.cache_hierarchy.ruby_system.m_outstandReqHistSeqr |  1200325089     44.52%     44.52% |  1205211964     44.70%     89.21% |   219718892      8.15%     97.36% |    40870233      1.52%     98.88% |    14168606      0.53%     99.40% |     6064306      0.22%     99.63% |     4139675      0.15%     99.78% |     3420007      0.13%     99.91% |     2497409      0.09%    100.00% |           0      0.00%    100.00% (Unspecified)
board.cache_hierarchy.ruby_system.m_outstandReqHistSeqr::total   2696416181                       (Unspecified)
board.cache_hierarchy.ruby_system.m_latencyHistSeqr::bucket_size         2048                       (Unspecified)
board.cache_hierarchy.ruby_system.m_latencyHistSeqr::max_bucket        20479                       (Unspecified)
board.cache_hierarchy.ruby_system.m_latencyHistSeqr::samples   2708776028                       (Unspecified)
board.cache_hierarchy.ruby_system.m_latencyHistSeqr::mean    10.829337                       (Unspecified)
board.cache_hierarchy.ruby_system.m_latencyHistSeqr::gmean     1.284634                       (Unspecified)
board.cache_hierarchy.ruby_system.m_latencyHistSeqr::stdev    55.343848                       (Unspecified)
board.cache_hierarchy.ruby_system.m_latencyHistSeqr |  2708766904    100.00%    100.00% |        8304      0.00%    100.00% |         550      0.00%    100.00% |         160      0.00%    100.00% |          71      0.00%    100.00% |          17      0.00%    100.00% |          14      0.00%    100.00% |           4      0.00%    100.00% |           2      0.00%    100.00% |           2      0.00%    100.00% (Unspecified)
board.cache_hierarchy.ruby_system.m_latencyHistSeqr::total   2708776028                       (Unspecified)
board.cache_hierarchy.ruby_system.m_hitLatencyHistSeqr::bucket_size         2048                       (Unspecified)
board.cache_hierarchy.ruby_system.m_hitLatencyHistSeqr::max_bucket        20479                       (Unspecified)
board.cache_hierarchy.ruby_system.m_hitLatencyHistSeqr::samples   2564725136                       (Unspecified)
board.cache_hierarchy.ruby_system.m_hitLatencyHistSeqr::mean     1.039850                       (Unspecified)
board.cache_hierarchy.ruby_system.m_hitLatencyHistSeqr::gmean     1.004901                       (Unspecified)
board.cache_hierarchy.ruby_system.m_hitLatencyHistSeqr::stdev     3.295761                       (Unspecified)
board.cache_hierarchy.ruby_system.m_hitLatencyHistSeqr |  2564725118    100.00%    100.00% |          16      0.00%    100.00% |           0      0.00%    100.00% |           1      0.00%    100.00% |           0      0.00%    100.00% |           0      0.00%    100.00% |           0      0.00%    100.00% |           0      0.00%    100.00% |           0      0.00%    100.00% |           1      0.00%    100.00% (Unspecified)
board.cache_hierarchy.ruby_system.m_hitLatencyHistSeqr::total   2564725136                       (Unspecified)
board.cache_hierarchy.ruby_system.m_missLatencyHistSeqr::bucket_size         2048                       (Unspecified)
board.cache_hierarchy.ruby_system.m_missLatencyHistSeqr::max_bucket        20479                       (Unspecified)
board.cache_hierarchy.ruby_system.m_missLatencyHistSeqr::samples    144050892                       (Unspecified)
board.cache_hierarchy.ruby_system.m_missLatencyHistSeqr::mean   185.124289                       (Unspecified)
board.cache_hierarchy.ruby_system.m_missLatencyHistSeqr::gmean   101.793563                       (Unspecified)
board.cache_hierarchy.ruby_system.m_missLatencyHistSeqr::stdev   159.116588                       (Unspecified)
board.cache_hierarchy.ruby_system.m_missLatencyHistSeqr |   144041786     99.99%     99.99% |        8288      0.01%    100.00% |         550      0.00%    100.00% |         159      0.00%    100.00% |          71      0.00%    100.00% |          17      0.00%    100.00% |          14      0.00%    100.00% |           4      0.00%    100.00% |           2      0.00%    100.00% |           1      0.00%    100.00% (Unspecified)
board.cache_hierarchy.ruby_system.m_missLatencyHistSeqr::total    144050892                       (Unspecified)
board.cache_hierarchy.ruby_system.delayVCHist.vnet_0::bucket_size          256                       # delay histogram for vnet_0 (Unspecified)
board.cache_hierarchy.ruby_system.delayVCHist.vnet_0::max_bucket         2559                       # delay histogram for vnet_0 (Unspecified)
board.cache_hierarchy.ruby_system.delayVCHist.vnet_0::samples    254654946                       # delay histogram for vnet_0 (Unspecified)
board.cache_hierarchy.ruby_system.delayVCHist.vnet_0::mean     1.110191                       # delay histogram for vnet_0 (Unspecified)
board.cache_hierarchy.ruby_system.delayVCHist.vnet_0::stdev     3.399229                       # delay histogram for vnet_0 (Unspecified)
board.cache_hierarchy.ruby_system.delayVCHist.vnet_0 |   254654417    100.00%    100.00% |         369      0.00%    100.00% |         101      0.00%    100.00% |          37      0.00%    100.00% |          16      0.00%    100.00% |           4      0.00%    100.00% |           2      0.00%    100.00% |           0      0.00%    100.00% |           0      0.00%    100.00% |           0      0.00%    100.00% # delay histogram for vnet_0 (Unspecified)
board.cache_hierarchy.ruby_system.delayVCHist.vnet_0::total    254654946                       # delay histogram for vnet_0 (Unspecified)
board.cache_hierarchy.ruby_system.delayVCHist.vnet_1::bucket_size           16                       # delay histogram for vnet_1 (Unspecified)
board.cache_hierarchy.ruby_system.delayVCHist.vnet_1::max_bucket          159                       # delay histogram for vnet_1 (Unspecified)
board.cache_hierarchy.ruby_system.delayVCHist.vnet_1::samples    471078752                       # delay histogram for vnet_1 (Unspecified)
board.cache_hierarchy.ruby_system.delayVCHist.vnet_1::mean     0.299223                       # delay histogram for vnet_1 (Unspecified)
board.cache_hierarchy.ruby_system.delayVCHist.vnet_1::stdev     1.382821                       # delay histogram for vnet_1 (Unspecified)
board.cache_hierarchy.ruby_system.delayVCHist.vnet_1 |   470714146     99.92%     99.92% |      353600      0.08%    100.00% |       10109      0.00%    100.00% |         773      0.00%    100.00% |          99      0.00%    100.00% |          11      0.00%    100.00% |           7      0.00%    100.00% |           5      0.00%    100.00% |           2      0.00%    100.00% |           0      0.00%    100.00% # delay histogram for vnet_1 (Unspecified)
board.cache_hierarchy.ruby_system.delayVCHist.vnet_1::total    471078752                       # delay histogram for vnet_1 (Unspecified)
board.cache_hierarchy.ruby_system.delayVCHist.vnet_2::bucket_size            1                       # delay histogram for vnet_2 (Unspecified)
board.cache_hierarchy.ruby_system.delayVCHist.vnet_2::max_bucket            9                       # delay histogram for vnet_2 (Unspecified)
board.cache_hierarchy.ruby_system.delayVCHist.vnet_2::samples     85866294                       # delay histogram for vnet_2 (Unspecified)
board.cache_hierarchy.ruby_system.delayVCHist.vnet_2::mean     0.000346                       # delay histogram for vnet_2 (Unspecified)
board.cache_hierarchy.ruby_system.delayVCHist.vnet_2::stdev     0.026405                       # delay histogram for vnet_2 (Unspecified)
board.cache_hierarchy.ruby_system.delayVCHist.vnet_2 |    85851465     99.98%     99.98% |           0      0.00%     99.98% |       14782      0.02%    100.00% |           0      0.00%    100.00% |          47      0.00%    100.00% |           0      0.00%    100.00% |           0      0.00%    100.00% |           0      0.00%    100.00% |           0      0.00%    100.00% |           0      0.00%    100.00% # delay histogram for vnet_2 (Unspecified)
board.cache_hierarchy.ruby_system.delayVCHist.vnet_2::total     85866294                       # delay histogram for vnet_2 (Unspecified)
board.cache_hierarchy.ruby_system.Directory_Controller.Fetch     98753683      0.00%      0.00% (Unspecified)
board.cache_hierarchy.ruby_system.Directory_Controller.Data     18930435      0.00%      0.00% (Unspecified)
board.cache_hierarchy.ruby_system.Directory_Controller.Memory_Data     99034491      0.00%      0.00% (Unspecified)
board.cache_hierarchy.ruby_system.Directory_Controller.Memory_Ack     20564673      0.00%      0.00% (Unspecified)
board.cache_hierarchy.ruby_system.Directory_Controller.DMA_READ       290678      0.00%      0.00% (Unspecified)
board.cache_hierarchy.ruby_system.Directory_Controller.DMA_WRITE      1634240      0.00%      0.00% (Unspecified)
board.cache_hierarchy.ruby_system.Directory_Controller.CleanReplacement     79819152      0.00%      0.00% (Unspecified)
board.cache_hierarchy.ruby_system.Directory_Controller.I.Fetch     98753683      0.00%      0.00% (Unspecified)
board.cache_hierarchy.ruby_system.Directory_Controller.I.DMA_READ       280811      0.00%      0.00% (Unspecified)
board.cache_hierarchy.ruby_system.Directory_Controller.I.DMA_WRITE      1634238      0.00%      0.00% (Unspecified)
board.cache_hierarchy.ruby_system.Directory_Controller.ID.Memory_Data       280811      0.00%      0.00% (Unspecified)
board.cache_hierarchy.ruby_system.Directory_Controller.ID_W.Memory_Ack      1634238      0.00%      0.00% (Unspecified)
board.cache_hierarchy.ruby_system.Directory_Controller.M.Data     18920594      0.00%      0.00% (Unspecified)
board.cache_hierarchy.ruby_system.Directory_Controller.M.DMA_READ         9839      0.00%      0.00% (Unspecified)
board.cache_hierarchy.ruby_system.Directory_Controller.M.DMA_WRITE            2      0.00%      0.00% (Unspecified)
board.cache_hierarchy.ruby_system.Directory_Controller.M.CleanReplacement     79819152      0.00%      0.00% (Unspecified)
board.cache_hierarchy.ruby_system.Directory_Controller.IM.Memory_Data     98753680      0.00%      0.00% (Unspecified)
board.cache_hierarchy.ruby_system.Directory_Controller.MI.Memory_Ack     18920594      0.00%      0.00% (Unspecified)
board.cache_hierarchy.ruby_system.Directory_Controller.MI.DMA_READ           28      0.00%      0.00% (Unspecified)
board.cache_hierarchy.ruby_system.Directory_Controller.M_DRD.Data         9839      0.00%      0.00% (Unspecified)
board.cache_hierarchy.ruby_system.Directory_Controller.M_DRDI.Memory_Ack         9839      0.00%      0.00% (Unspecified)
board.cache_hierarchy.ruby_system.Directory_Controller.M_DWR.Data            2      0.00%      0.00% (Unspecified)
board.cache_hierarchy.ruby_system.Directory_Controller.M_DWRI.Memory_Ack            2      0.00%      0.00% (Unspecified)
board.cache_hierarchy.ruby_system.DMA_Controller.ReadRequest |      290650    100.00%    100.00% |           0      0.00%    100.00% (Unspecified)
board.cache_hierarchy.ruby_system.DMA_Controller.ReadRequest::total       290650                       (Unspecified)
board.cache_hierarchy.ruby_system.DMA_Controller.WriteRequest |     1634240    100.00%    100.00% |           0      0.00%    100.00% (Unspecified)
board.cache_hierarchy.ruby_system.DMA_Controller.WriteRequest::total      1634240                       (Unspecified)
board.cache_hierarchy.ruby_system.DMA_Controller.Data |      290650    100.00%    100.00% |           0      0.00%    100.00% (Unspecified)
board.cache_hierarchy.ruby_system.DMA_Controller.Data::total       290650                       (Unspecified)
board.cache_hierarchy.ruby_system.DMA_Controller.Ack |     1634240    100.00%    100.00% |           0      0.00%    100.00% (Unspecified)
board.cache_hierarchy.ruby_system.DMA_Controller.Ack::total      1634240                       (Unspecified)
board.cache_hierarchy.ruby_system.DMA_Controller.READY.ReadRequest |      290650    100.00%    100.00% |           0      0.00%    100.00% (Unspecified)
board.cache_hierarchy.ruby_system.DMA_Controller.READY.ReadRequest::total       290650                       (Unspecified)
board.cache_hierarchy.ruby_system.DMA_Controller.READY.WriteRequest |     1634240    100.00%    100.00% |           0      0.00%    100.00% (Unspecified)
board.cache_hierarchy.ruby_system.DMA_Controller.READY.WriteRequest::total      1634240                       (Unspecified)
board.cache_hierarchy.ruby_system.DMA_Controller.BUSY_RD.Data |      290650    100.00%    100.00% |           0      0.00%    100.00% (Unspecified)
board.cache_hierarchy.ruby_system.DMA_Controller.BUSY_RD.Data::total       290650                       (Unspecified)
board.cache_hierarchy.ruby_system.DMA_Controller.BUSY_WR.Ack |     1634240    100.00%    100.00% |           0      0.00%    100.00% (Unspecified)
board.cache_hierarchy.ruby_system.DMA_Controller.BUSY_WR.Ack::total      1634240                       (Unspecified)
board.cache_hierarchy.ruby_system.L1Cache_Controller.Load |   121739831     10.39%     10.39% |    89369527      7.62%     18.01% |   103558290      8.83%     26.84% |    88624889      7.56%     34.40% |   139842335     11.93%     46.33% |   335775692     28.64%     74.98% |   107964756      9.21%     84.19% |   185371094     15.81%    100.00% (Unspecified)
board.cache_hierarchy.ruby_system.L1Cache_Controller.Load::total   1172246414                       (Unspecified)
board.cache_hierarchy.ruby_system.L1Cache_Controller.Ifetch |    85142598     10.00%     10.00% |    64232037      7.54%     17.54% |    74841894      8.79%     26.33% |    66503016      7.81%     34.15% |    98254883     11.54%     45.69% |   271005214     31.83%     77.52% |    77513703      9.10%     86.62% |   113917734     13.38%    100.00% (Unspecified)
board.cache_hierarchy.ruby_system.L1Cache_Controller.Ifetch::total    851411079                       (Unspecified)
board.cache_hierarchy.ruby_system.L1Cache_Controller.Store |    74138520     10.79%     10.79% |    57341096      8.34%     19.13% |    60886612      8.86%     27.99% |    56466189      8.21%     36.20% |    82954311     12.07%     48.27% |   191584481     27.87%     76.14% |    65813321      9.57%     85.71% |    98204114     14.29%    100.00% (Unspecified)
board.cache_hierarchy.ruby_system.L1Cache_Controller.Store::total    687388644                       (Unspecified)
board.cache_hierarchy.ruby_system.L1Cache_Controller.Inv |    10423640     12.39%     12.39% |    10803372     12.84%     25.24% |    10556774     12.55%     37.79% |     9201716     10.94%     48.73% |    11196075     13.31%     62.04% |     8383377      9.97%     72.01% |    11942339     14.20%     86.21% |    11599681     13.79%    100.00% (Unspecified)
board.cache_hierarchy.ruby_system.L1Cache_Controller.Inv::total     84106974                       (Unspecified)
board.cache_hierarchy.ruby_system.L1Cache_Controller.L1_Replacement |    15732189     12.43%     12.43% |    13226457     10.45%     22.89% |    13574838     10.73%     33.61% |    12124335      9.58%     43.20% |    16956638     13.40%     56.60% |    20554409     16.24%     72.84% |    15382479     12.16%     85.00% |    18980614     15.00%    100.00% (Unspecified)
board.cache_hierarchy.ruby_system.L1Cache_Controller.L1_Replacement::total    126531959                       (Unspecified)
board.cache_hierarchy.ruby_system.L1Cache_Controller.Fwd_GETX |       18617     14.91%     14.91% |       20416     16.35%     31.25% |       14239     11.40%     42.65% |       13119     10.50%     53.16% |       15786     12.64%     65.80% |        5049      4.04%     69.84% |       19204     15.38%     85.21% |       18467     14.79%    100.00% (Unspecified)
board.cache_hierarchy.ruby_system.L1Cache_Controller.Fwd_GETX::total       124897                       (Unspecified)
board.cache_hierarchy.ruby_system.L1Cache_Controller.Fwd_GETS |      256407     15.69%     15.69% |      238092     14.57%     30.26% |      205710     12.59%     42.84% |      180194     11.03%     53.87% |      197899     12.11%     65.98% |       94119      5.76%     71.74% |      231548     14.17%     85.90% |      230370     14.10%    100.00% (Unspecified)
board.cache_hierarchy.ruby_system.L1Cache_Controller.Fwd_GETS::total      1634339                       (Unspecified)
board.cache_hierarchy.ruby_system.L1Cache_Controller.Fwd_GET_INSTR |          13     15.48%     15.48% |          17     20.24%     35.71% |          13     15.48%     51.19% |          10     11.90%     63.10% |           2      2.38%     65.48% |           3      3.57%     69.05% |          10     11.90%     80.95% |          16     19.05%    100.00% (Unspecified)
board.cache_hierarchy.ruby_system.L1Cache_Controller.Fwd_GET_INSTR::total           84                       (Unspecified)
board.cache_hierarchy.ruby_system.L1Cache_Controller.Data |        3433     42.89%     42.89% |         679      8.48%     51.37% |         798      9.97%     61.34% |         482      6.02%     67.36% |         509      6.36%     73.72% |         448      5.60%     79.31% |         591      7.38%     86.70% |        1065     13.30%    100.00% (Unspecified)
board.cache_hierarchy.ruby_system.L1Cache_Controller.Data::total         8005                       (Unspecified)
board.cache_hierarchy.ruby_system.L1Cache_Controller.Data_Exclusive |     5559844     10.88%     10.88% |     3838879      7.51%     18.39% |     4239596      8.29%     26.68% |     3925836      7.68%     34.36% |     6191792     12.11%     46.48% |    15468033     30.26%     76.74% |     4805845      9.40%     86.14% |     7083753     13.86%    100.00% (Unspecified)
board.cache_hierarchy.ruby_system.L1Cache_Controller.Data_Exclusive::total     51113578                       (Unspecified)
board.cache_hierarchy.ruby_system.L1Cache_Controller.DataS_fromL1 |      176933     10.83%     10.83% |      399128     24.42%     35.25% |      208062     12.73%     47.98% |      168326     10.30%     58.27% |      170059     10.40%     68.68% |       91514      5.60%     74.28% |      204087     12.49%     86.77% |      216314     13.23%    100.00% (Unspecified)
board.cache_hierarchy.ruby_system.L1Cache_Controller.DataS_fromL1::total      1634423                       (Unspecified)
board.cache_hierarchy.ruby_system.L1Cache_Controller.Data_all_Acks |    11823712     12.98%     12.98% |    11480720     12.60%     25.58% |    10918605     11.99%     37.57% |     9770467     10.73%     48.29% |    12787207     14.04%     62.33% |     8247790      9.05%     71.38% |    12327106     13.53%     84.92% |    13740878     15.08%    100.00% (Unspecified)
board.cache_hierarchy.ruby_system.L1Cache_Controller.Data_all_Acks::total     91096485                       (Unspecified)
board.cache_hierarchy.ruby_system.L1Cache_Controller.Ack |       77225     21.83%     21.83% |       76704     21.68%     43.51% |       33809      9.56%     53.06% |       29018      8.20%     61.26% |       33420      9.45%     70.71% |       15275      4.32%     75.03% |       40420     11.42%     86.45% |       47945     13.55%    100.00% (Unspecified)
board.cache_hierarchy.ruby_system.L1Cache_Controller.Ack::total       353816                       (Unspecified)
board.cache_hierarchy.ruby_system.L1Cache_Controller.Ack_all |       53884     17.57%     17.57% |       72311     23.58%     41.16% |       29233      9.53%     50.69% |       25246      8.23%     58.93% |       30088      9.81%     68.74% |       13313      4.34%     73.08% |       36877     12.03%     85.11% |       45662     14.89%    100.00% (Unspecified)
board.cache_hierarchy.ruby_system.L1Cache_Controller.Ack_all::total       306614                       (Unspecified)
board.cache_hierarchy.ruby_system.L1Cache_Controller.WB_Ack |     4921290     11.27%     11.27% |     3232743      7.40%     18.67% |     3271867      7.49%     26.16% |     3010451      6.89%     33.06% |     5277373     12.08%     45.14% |    13963149     31.97%     77.11% |     3609996      8.27%     85.38% |     6386278     14.62%    100.00% (Unspecified)
board.cache_hierarchy.ruby_system.L1Cache_Controller.WB_Ack::total     43673147                       (Unspecified)
board.cache_hierarchy.ruby_system.L1Cache_Controller.NP.Load |     5267899     10.93%     10.93% |     3585189      7.44%     18.37% |     3985656      8.27%     26.65% |     3622789      7.52%     34.16% |     5761532     11.96%     46.12% |    14683627     30.47%     76.60% |     4452661      9.24%     85.84% |     6823927     14.16%    100.00% (Unspecified)
board.cache_hierarchy.ruby_system.L1Cache_Controller.NP.Load::total     48183280                       (Unspecified)
board.cache_hierarchy.ruby_system.L1Cache_Controller.NP.Ifetch |     8885571     13.42%     13.42% |     7962818     12.03%     25.45% |     8084855     12.21%     37.66% |     7334302     11.08%     48.74% |     9547013     14.42%     63.15% |     4500421      6.80%     69.95% |     9515089     14.37%     84.32% |    10379646     15.68%    100.00% (Unspecified)
board.cache_hierarchy.ruby_system.L1Cache_Controller.NP.Ifetch::total     66209715                       (Unspecified)
board.cache_hierarchy.ruby_system.L1Cache_Controller.NP.Store |     1579006     13.01%     13.01% |     1678646     13.83%     26.84% |     1504481     12.39%     39.23% |     1167485      9.62%     48.85% |     1647875     13.57%     62.42% |     1370328     11.29%     73.71% |     1414949     11.66%     85.36% |     1776673     14.64%    100.00% (Unspecified)
board.cache_hierarchy.ruby_system.L1Cache_Controller.NP.Store::total     12139443                       (Unspecified)
board.cache_hierarchy.ruby_system.L1Cache_Controller.NP.Inv |     5860174     13.77%     13.77% |     5167265     12.14%     25.91% |     5478887     12.87%     38.78% |     4849850     11.39%     50.17% |     5929712     13.93%     64.10% |     2398594      5.64%     69.74% |     6650640     15.62%     85.36% |     6230765     14.64%    100.00% (Unspecified)
board.cache_hierarchy.ruby_system.L1Cache_Controller.NP.Inv::total     42565887                       (Unspecified)
board.cache_hierarchy.ruby_system.L1Cache_Controller.I.Load |      806146     11.04%     11.04% |      995699     13.63%     24.67% |      830029     11.37%     36.04% |      780246     10.68%     46.72% |      952089     13.04%     59.76% |     1107418     15.16%     74.92% |      921614     12.62%     87.54% |      909854     12.46%    100.00% (Unspecified)
board.cache_hierarchy.ruby_system.L1Cache_Controller.I.Load::total      7303095                       (Unspecified)
board.cache_hierarchy.ruby_system.L1Cache_Controller.I.Ifetch |      827568      9.88%      9.88% |     1222826     14.61%     24.49% |      778140      9.29%     33.78% |      787021      9.40%     43.18% |     1026661     12.26%     55.45% |     1958248     23.39%     78.84% |      831435      9.93%     88.77% |      940419     11.23%    100.00% (Unspecified)
board.cache_hierarchy.ruby_system.L1Cache_Controller.I.Ifetch::total      8372318                       (Unspecified)
board.cache_hierarchy.ruby_system.L1Cache_Controller.I.Store |      196709     12.02%     12.02% |      273048     16.69%     28.71% |      182687     11.16%     39.87% |      172343     10.53%     50.41% |      213023     13.02%     63.42% |      187461     11.46%     74.88% |      200742     12.27%     87.15% |      210268     12.85%    100.00% (Unspecified)
board.cache_hierarchy.ruby_system.L1Cache_Controller.I.Store::total      1636281                       (Unspecified)
board.cache_hierarchy.ruby_system.L1Cache_Controller.I.Inv |           3     15.79%     15.79% |           3     15.79%     31.58% |           0      0.00%     31.58% |           1      5.26%     36.84% |           4     21.05%     57.89% |           2     10.53%     68.42% |           4     21.05%     89.47% |           2     10.53%    100.00% (Unspecified)
board.cache_hierarchy.ruby_system.L1Cache_Controller.I.Inv::total           19                       (Unspecified)
board.cache_hierarchy.ruby_system.L1Cache_Controller.I.L1_Replacement |     2749107     11.30%     11.30% |     3163064     13.00%     24.30% |     3298365     13.55%     37.85% |     2622902     10.78%     48.63% |     3087330     12.69%     61.31% |     2735765     11.24%     72.56% |     3354208     13.78%     86.34% |     3323980     13.66%    100.00% (Unspecified)
board.cache_hierarchy.ruby_system.L1Cache_Controller.I.L1_Replacement::total     24334721                       (Unspecified)
board.cache_hierarchy.ruby_system.L1Cache_Controller.S.Load |     4619438      9.97%      9.97% |     8139312     17.57%     27.55% |     8496049     18.34%     45.89% |     5873418     12.68%     58.57% |     5239886     11.31%     69.88% |     2684173      5.79%     75.68% |     5393261     11.64%     87.32% |     5873897     12.68%    100.00% (Unspecified)
board.cache_hierarchy.ruby_system.L1Cache_Controller.S.Load::total     46319434                       (Unspecified)
board.cache_hierarchy.ruby_system.L1Cache_Controller.S.Ifetch |    75429389      9.71%      9.71% |    55046320      7.09%     16.80% |    65978675      8.49%     25.29% |    58381589      7.52%     32.80% |    87680842     11.29%     44.09% |   264546150     34.05%     78.15% |    67167083      8.65%     86.79% |   102597301     13.21%    100.00% (Unspecified)
board.cache_hierarchy.ruby_system.L1Cache_Controller.S.Ifetch::total    776827349                       (Unspecified)
board.cache_hierarchy.ruby_system.L1Cache_Controller.S.Store |       51474     16.77%     16.77% |       72813     23.72%     40.49% |       29648      9.66%     50.15% |       25689      8.37%     58.51% |       30953     10.08%     68.60% |       13149      4.28%     72.88% |       37425     12.19%     85.07% |       45820     14.93%    100.00% (Unspecified)
board.cache_hierarchy.ruby_system.L1Cache_Controller.S.Store::total       306971                       (Unspecified)
board.cache_hierarchy.ruby_system.L1Cache_Controller.S.Inv |     2371129     10.90%     10.90% |     3262138     14.99%     25.89% |     2610098     11.99%     37.88% |     2261797     10.39%     48.27% |     2671402     12.28%     60.55% |     3007745     13.82%     74.37% |     2691463     12.37%     86.74% |     2885526     13.26%    100.00% (Unspecified)
board.cache_hierarchy.ruby_system.L1Cache_Controller.S.Inv::total     21761298                       (Unspecified)
board.cache_hierarchy.ruby_system.L1Cache_Controller.S.L1_Replacement |     8061055     13.78%     13.78% |     6829822     11.67%     25.45% |     7003736     11.97%     37.42% |     6490199     11.09%     48.51% |     8590693     14.68%     63.19% |     3854438      6.59%     69.78% |     8417471     14.38%     84.16% |     9268964     15.84%    100.00% (Unspecified)
board.cache_hierarchy.ruby_system.L1Cache_Controller.S.L1_Replacement::total     58516378                       (Unspecified)
board.cache_hierarchy.ruby_system.L1Cache_Controller.E.Load |    54268650      9.68%      9.68% |    34797690      6.21%     15.89% |    41526778      7.41%     23.29% |    36523813      6.51%     29.81% |    61709957     11.01%     40.82% |   187415388     33.43%     74.25% |    45575312      8.13%     82.38% |    98807245     17.62%    100.00% (Unspecified)
board.cache_hierarchy.ruby_system.L1Cache_Controller.E.Load::total    560624833                       (Unspecified)
board.cache_hierarchy.ruby_system.L1Cache_Controller.E.Store |      796934     10.57%     10.57% |      713233      9.46%     20.03% |      860635     11.42%     31.45% |      703159      9.33%     40.78% |     1276940     16.94%     57.72% |     1050347     13.93%     71.66% |      817746     10.85%     82.51% |     1318697     17.49%    100.00% (Unspecified)
board.cache_hierarchy.ruby_system.L1Cache_Controller.E.Store::total      7537691                       (Unspecified)
board.cache_hierarchy.ruby_system.L1Cache_Controller.E.Inv |     1237717     10.77%     10.77% |     1250697     10.88%     21.64% |     1348195     11.73%     33.37% |     1177174     10.24%     43.61% |     1468758     12.78%     56.38% |     2167458     18.85%     75.24% |     1467198     12.76%     88.00% |     1379840     12.00%    100.00% (Unspecified)
board.cache_hierarchy.ruby_system.L1Cache_Controller.E.Inv::total     11497037                       (Unspecified)
board.cache_hierarchy.ruby_system.L1Cache_Controller.E.L1_Replacement |     3338061     10.85%     10.85% |     1694670      5.51%     16.35% |     1855550      6.03%     22.38% |     1895131      6.16%     28.54% |     3284494     10.67%     39.21% |    12172156     39.55%     78.75% |     2333825      7.58%     86.34% |     4205583     13.66%    100.00% (Unspecified)
board.cache_hierarchy.ruby_system.L1Cache_Controller.E.L1_Replacement::total     30779470                       (Unspecified)
board.cache_hierarchy.ruby_system.L1Cache_Controller.E.Fwd_GETX |        2497     13.51%     13.51% |        3454     18.68%     32.19% |        2058     11.13%     43.32% |        1992     10.78%     54.10% |        2175     11.77%     65.86% |         961      5.20%     71.06% |        2763     14.95%     86.01% |        2587     13.99%    100.00% (Unspecified)
board.cache_hierarchy.ruby_system.L1Cache_Controller.E.Fwd_GETX::total        18487                       (Unspecified)
board.cache_hierarchy.ruby_system.L1Cache_Controller.E.Fwd_GETS |      184622     14.42%     14.42% |      176587     13.79%     28.21% |      173145     13.52%     41.73% |      148370     11.59%     53.32% |      159423     12.45%     65.77% |       76972      6.01%     71.78% |      184305     14.39%     86.17% |      177031     13.83%    100.00% (Unspecified)
board.cache_hierarchy.ruby_system.L1Cache_Controller.E.Fwd_GETS::total      1280455                       (Unspecified)
board.cache_hierarchy.ruby_system.L1Cache_Controller.E.Fwd_GET_INSTR |          13     16.46%     16.46% |          16     20.25%     36.71% |          13     16.46%     53.16% |          10     12.66%     65.82% |           2      2.53%     68.35% |           2      2.53%     70.89% |           8     10.13%     81.01% |          15     18.99%    100.00% (Unspecified)
board.cache_hierarchy.ruby_system.L1Cache_Controller.E.Fwd_GET_INSTR::total           79                       (Unspecified)
board.cache_hierarchy.ruby_system.L1Cache_Controller.M.Load |    56776672     11.14%     11.14% |    41851134      8.21%     19.35% |    48719228      9.56%     28.90% |    41824153      8.20%     37.11% |    66177447     12.98%     50.09% |   129882140     25.48%     75.56% |    51621344     10.13%     85.69% |    72954216     14.31%    100.00% (Unspecified)
board.cache_hierarchy.ruby_system.L1Cache_Controller.M.Load::total    509806334                       (Unspecified)
board.cache_hierarchy.ruby_system.L1Cache_Controller.M.Store |    71514311     10.74%     10.74% |    54603312      8.20%     18.94% |    58309099      8.76%     27.70% |    54397450      8.17%     35.87% |    79785319     11.98%     47.86% |   188963067     28.38%     76.24% |    63342418      9.51%     85.75% |    94852341     14.25%    100.00% (Unspecified)
board.cache_hierarchy.ruby_system.L1Cache_Controller.M.Store::total    665767317                       (Unspecified)
board.cache_hierarchy.ruby_system.L1Cache_Controller.M.Inv |      952998     11.53%     11.53% |     1120933     13.56%     25.09% |     1116401     13.51%     38.60% |      910414     11.01%     49.61% |     1123835     13.60%     63.21% |      808711      9.78%     72.99% |     1131025     13.68%     86.67% |     1101554     13.33%    100.00% (Unspecified)
board.cache_hierarchy.ruby_system.L1Cache_Controller.M.Inv::total      8265871                       (Unspecified)
board.cache_hierarchy.ruby_system.L1Cache_Controller.M.L1_Replacement |     1583229     12.28%     12.28% |     1538073     11.93%     24.21% |     1416317     10.98%     35.19% |     1115320      8.65%     43.84% |     1992879     15.46%     59.30% |     1790993     13.89%     73.19% |     1276171      9.90%     83.09% |     2180695     16.91%    100.00% (Unspecified)
board.cache_hierarchy.ruby_system.L1Cache_Controller.M.L1_Replacement::total     12893677                       (Unspecified)
board.cache_hierarchy.ruby_system.L1Cache_Controller.M.Fwd_GETX |       16119     15.15%     15.15% |       16962     15.94%     31.09% |       12180     11.45%     42.54% |       11126     10.46%     52.99% |       13610     12.79%     65.78% |        4088      3.84%     69.63% |       16440     15.45%     85.08% |       15880     14.92%    100.00% (Unspecified)
board.cache_hierarchy.ruby_system.L1Cache_Controller.M.Fwd_GETX::total       106405                       (Unspecified)
board.cache_hierarchy.ruby_system.L1Cache_Controller.M.Fwd_GETS |       71777     20.29%     20.29% |       61496     17.38%     37.67% |       32553      9.20%     46.87% |       31816      8.99%     55.86% |       38467     10.87%     66.73% |       17139      4.84%     71.58% |       47226     13.35%     84.93% |       53329     15.07%    100.00% (Unspecified)
board.cache_hierarchy.ruby_system.L1Cache_Controller.M.Fwd_GETS::total       353803                       (Unspecified)
board.cache_hierarchy.ruby_system.L1Cache_Controller.IS.Inv |         103      2.69%      2.69% |         596     15.57%     18.26% |        1320     34.49%     52.76% |        1043     27.25%     80.01% |         363      9.49%     89.50% |          96      2.51%     92.00% |         144      3.76%     95.77% |         162      4.23%    100.00% (Unspecified)
board.cache_hierarchy.ruby_system.L1Cache_Controller.IS.Inv::total         3827                       (Unspecified)
board.cache_hierarchy.ruby_system.L1Cache_Controller.IS.L1_Replacement |         667      9.88%      9.88% |         737     10.91%     20.79% |         732     10.84%     31.63% |         664      9.83%     41.46% |        1059     15.68%     57.14% |         943     13.96%     71.11% |         715     10.59%     81.70% |        1236     18.30%    100.00% (Unspecified)
board.cache_hierarchy.ruby_system.L1Cache_Controller.IS.L1_Replacement::total         6753                       (Unspecified)
board.cache_hierarchy.ruby_system.L1Cache_Controller.IS.Data_Exclusive |     5559835     10.88%     10.88% |     3838869      7.51%     18.39% |     4239589      8.29%     26.68% |     3925826      7.68%     34.36% |     6191776     12.11%     46.48% |    15468032     30.26%     76.74% |     4805835      9.40%     86.14% |     7083746     13.86%    100.00% (Unspecified)
board.cache_hierarchy.ruby_system.L1Cache_Controller.IS.Data_Exclusive::total     51113508                       (Unspecified)
board.cache_hierarchy.ruby_system.L1Cache_Controller.IS.DataS_fromL1 |      176933     10.83%     10.83% |      399128     24.42%     35.25% |      208061     12.73%     47.98% |      168326     10.30%     58.27% |      170059     10.40%     68.68% |       91514      5.60%     74.28% |      204087     12.49%     86.77% |      216314     13.23%    100.00% (Unspecified)
board.cache_hierarchy.ruby_system.L1Cache_Controller.IS.DataS_fromL1::total      1634422                       (Unspecified)
board.cache_hierarchy.ruby_system.L1Cache_Controller.IS.Data_all_Acks |    10050313     13.00%     13.00% |     9527938     12.32%     25.32% |     9229710     11.94%     37.26% |     8429163     10.90%     48.16% |    10925097     14.13%     62.29% |     6690070      8.65%     70.94% |    10710733     13.85%     84.80% |    11753624     15.20%    100.00% (Unspecified)
board.cache_hierarchy.ruby_system.L1Cache_Controller.IS.Data_all_Acks::total     77316648                       (Unspecified)
board.cache_hierarchy.ruby_system.L1Cache_Controller.IM.Inv |           1      5.26%      5.26% |           3     15.79%     21.05% |           4     21.05%     42.11% |           0      0.00%     42.11% |           4     21.05%     63.16% |           0      0.00%     63.16% |           7     36.84%    100.00% |           0      0.00%    100.00% (Unspecified)
board.cache_hierarchy.ruby_system.L1Cache_Controller.IM.Inv::total           19                       (Unspecified)
board.cache_hierarchy.ruby_system.L1Cache_Controller.IM.L1_Replacement |          70      7.29%      7.29% |          91      9.48%     16.77% |         138     14.37%     31.15% |         119     12.40%     43.54% |         183     19.06%     62.60% |         114     11.88%     74.48% |          89      9.27%     83.75% |         156     16.25%    100.00% (Unspecified)
board.cache_hierarchy.ruby_system.L1Cache_Controller.IM.L1_Replacement::total          960                       (Unspecified)
board.cache_hierarchy.ruby_system.L1Cache_Controller.IM.Data |        3433     42.89%     42.89% |         679      8.48%     51.37% |         798      9.97%     61.34% |         482      6.02%     67.36% |         509      6.36%     73.72% |         448      5.60%     79.31% |         591      7.38%     86.70% |        1065     13.30%    100.00% (Unspecified)
board.cache_hierarchy.ruby_system.L1Cache_Controller.IM.Data::total         8005                       (Unspecified)
board.cache_hierarchy.ruby_system.L1Cache_Controller.IM.Data_all_Acks |     1773305     12.87%     12.87% |     1952196     14.17%     27.04% |     1687583     12.25%     39.29% |     1340271      9.73%     49.02% |     1861763     13.51%     62.54% |     1557625     11.31%     73.84% |     1616239     11.73%     85.58% |     1987099     14.42%    100.00% (Unspecified)
board.cache_hierarchy.ruby_system.L1Cache_Controller.IM.Data_all_Acks::total     13776081                       (Unspecified)
board.cache_hierarchy.ruby_system.L1Cache_Controller.IM.Ack |           0      0.00%      0.00% |           0      0.00%      0.00% |           0      0.00%      0.00% |           0      0.00%      0.00% |           3     30.00%     30.00% |           0      0.00%     30.00% |           1     10.00%     40.00% |           6     60.00%    100.00% (Unspecified)
board.cache_hierarchy.ruby_system.L1Cache_Controller.IM.Ack::total           10                       (Unspecified)
board.cache_hierarchy.ruby_system.L1Cache_Controller.SM.Inv |        1023     12.23%     12.23% |        1181     14.12%     26.36% |        1213     14.51%     40.86% |         925     11.06%     51.93% |        1374     16.43%     68.36% |         284      3.40%     71.75% |        1139     13.62%     85.37% |        1223     14.63%    100.00% (Unspecified)
board.cache_hierarchy.ruby_system.L1Cache_Controller.SM.Inv::total         8362                       (Unspecified)
board.cache_hierarchy.ruby_system.L1Cache_Controller.SM.Ack |       77225     21.83%     21.83% |       76704     21.68%     43.51% |       33809      9.56%     53.06% |       29018      8.20%     61.26% |       33417      9.45%     70.71% |       15275      4.32%     75.03% |       40419     11.42%     86.45% |       47939     13.55%    100.00% (Unspecified)
board.cache_hierarchy.ruby_system.L1Cache_Controller.SM.Ack::total       353806                       (Unspecified)
board.cache_hierarchy.ruby_system.L1Cache_Controller.SM.Ack_all |       53884     17.57%     17.57% |       72311     23.58%     41.16% |       29233      9.53%     50.69% |       25246      8.23%     58.93% |       30088      9.81%     68.74% |       13313      4.34%     73.08% |       36877     12.03%     85.11% |       45662     14.89%    100.00% (Unspecified)
board.cache_hierarchy.ruby_system.L1Cache_Controller.SM.Ack_all::total       306614                       (Unspecified)
board.cache_hierarchy.ruby_system.L1Cache_Controller.IS_I.Data_Exclusive |           9     12.86%     12.86% |          10     14.29%     27.14% |           7     10.00%     37.14% |          10     14.29%     51.43% |          16     22.86%     74.29% |           1      1.43%     75.71% |          10     14.29%     90.00% |           7     10.00%    100.00% (Unspecified)
board.cache_hierarchy.ruby_system.L1Cache_Controller.IS_I.Data_Exclusive::total           70                       (Unspecified)
board.cache_hierarchy.ruby_system.L1Cache_Controller.IS_I.DataS_fromL1 |           0      0.00%      0.00% |           0      0.00%      0.00% |           1    100.00%    100.00% |           0      0.00%    100.00% |           0      0.00%    100.00% |           0      0.00%    100.00% |           0      0.00%    100.00% |           0      0.00%    100.00% (Unspecified)
board.cache_hierarchy.ruby_system.L1Cache_Controller.IS_I.DataS_fromL1::total            1                       (Unspecified)
board.cache_hierarchy.ruby_system.L1Cache_Controller.IS_I.Data_all_Acks |          94      2.50%      2.50% |         586     15.60%     18.10% |        1312     34.93%     53.04% |        1033     27.50%     80.54% |         347      9.24%     89.78% |          95      2.53%     92.31% |         134      3.57%     95.87% |         155      4.13%    100.00% (Unspecified)
board.cache_hierarchy.ruby_system.L1Cache_Controller.IS_I.Data_all_Acks::total         3756                       (Unspecified)
board.cache_hierarchy.ruby_system.L1Cache_Controller.M_I.Load |        1026     10.87%     10.87% |         503      5.33%     16.21% |         550      5.83%     22.03% |         470      4.98%     27.02% |        1422     15.07%     42.09% |        2945     31.21%     73.30% |         564      5.98%     79.28% |        1955     20.72%    100.00% (Unspecified)
board.cache_hierarchy.ruby_system.L1Cache_Controller.M_I.Load::total         9435                       (Unspecified)
board.cache_hierarchy.ruby_system.L1Cache_Controller.M_I.Ifetch |          70      4.12%      4.12% |          73      4.30%      8.43% |         224     13.20%     21.63% |         104      6.13%     27.75% |         367     21.63%     49.38% |         395     23.28%     72.66% |          96      5.66%     78.31% |         368     21.69%    100.00% (Unspecified)
board.cache_hierarchy.ruby_system.L1Cache_Controller.M_I.Ifetch::total         1697                       (Unspecified)
board.cache_hierarchy.ruby_system.L1Cache_Controller.M_I.Store |          86      9.15%      9.15% |          44      4.68%     13.83% |          62      6.60%     20.43% |          62      6.60%     27.02% |         201     21.38%     48.40% |         129     13.72%     62.13% |          41      4.36%     66.49% |         315     33.51%    100.00% (Unspecified)
board.cache_hierarchy.ruby_system.L1Cache_Controller.M_I.Store::total          940                       (Unspecified)
board.cache_hierarchy.ruby_system.L1Cache_Controller.M_I.Inv |         492     10.57%     10.57% |         556     11.95%     22.52% |         656     14.10%     36.61% |         512     11.00%     47.61% |         623     13.39%     61.00% |         487     10.46%     71.47% |         719     15.45%     86.91% |         609     13.09%    100.00% (Unspecified)
board.cache_hierarchy.ruby_system.L1Cache_Controller.M_I.Inv::total         4654                       (Unspecified)
board.cache_hierarchy.ruby_system.L1Cache_Controller.M_I.Fwd_GETX |           1     20.00%     20.00% |           0      0.00%     20.00% |           1     20.00%     40.00% |           1     20.00%     60.00% |           1     20.00%     80.00% |           0      0.00%     80.00% |           1     20.00%    100.00% |           0      0.00%    100.00% (Unspecified)
board.cache_hierarchy.ruby_system.L1Cache_Controller.M_I.Fwd_GETX::total            5                       (Unspecified)
board.cache_hierarchy.ruby_system.L1Cache_Controller.M_I.Fwd_GETS |           8      9.88%      9.88% |           9     11.11%     20.99% |          12     14.81%     35.80% |           8      9.88%     45.68% |           9     11.11%     56.79% |           8      9.88%     66.67% |          17     20.99%     87.65% |          10     12.35%    100.00% (Unspecified)
board.cache_hierarchy.ruby_system.L1Cache_Controller.M_I.Fwd_GETS::total           81                       (Unspecified)
board.cache_hierarchy.ruby_system.L1Cache_Controller.M_I.Fwd_GET_INSTR |           0      0.00%      0.00% |           1     20.00%     20.00% |           0      0.00%     20.00% |           0      0.00%     20.00% |           0      0.00%     20.00% |           1     20.00%     40.00% |           2     40.00%     80.00% |           1     20.00%    100.00% (Unspecified)
board.cache_hierarchy.ruby_system.L1Cache_Controller.M_I.Fwd_GET_INSTR::total            5                       (Unspecified)
board.cache_hierarchy.ruby_system.L1Cache_Controller.M_I.WB_Ack |     4920789     11.27%     11.27% |     3232177      7.40%     18.67% |     3271198      7.49%     26.16% |     3009930      6.89%     33.05% |     5276740     12.08%     45.14% |    13962653     31.97%     77.11% |     3609257      8.27%     85.38% |     6385658     14.62%    100.00% (Unspecified)
board.cache_hierarchy.ruby_system.L1Cache_Controller.M_I.WB_Ack::total     43668402                       (Unspecified)
board.cache_hierarchy.ruby_system.L1Cache_Controller.SINK_WB_ACK.Load |           0      0.00%      0.00% |           0      0.00%      0.00% |           0      0.00%      0.00% |           0      0.00%      0.00% |           2     66.67%     66.67% |           1     33.33%    100.00% |           0      0.00%    100.00% |           0      0.00%    100.00% (Unspecified)
board.cache_hierarchy.ruby_system.L1Cache_Controller.SINK_WB_ACK.Load::total            3                       (Unspecified)
board.cache_hierarchy.ruby_system.L1Cache_Controller.SINK_WB_ACK.Store |           0      0.00%      0.00% |           0      0.00%      0.00% |           0      0.00%      0.00% |           1    100.00%    100.00% |           0      0.00%    100.00% |           0      0.00%    100.00% |           0      0.00%    100.00% |           0      0.00%    100.00% (Unspecified)
board.cache_hierarchy.ruby_system.L1Cache_Controller.SINK_WB_ACK.Store::total            1                       (Unspecified)
board.cache_hierarchy.ruby_system.L1Cache_Controller.SINK_WB_ACK.WB_Ack |         501     10.56%     10.56% |         566     11.93%     22.49% |         669     14.10%     36.59% |         521     10.98%     47.57% |         633     13.34%     60.91% |         496     10.45%     71.36% |         739     15.57%     86.93% |         620     13.07%    100.00% (Unspecified)
board.cache_hierarchy.ruby_system.L1Cache_Controller.SINK_WB_ACK.WB_Ack::total         4745                       (Unspecified)
board.cache_hierarchy.ruby_system.L2Cache_Controller.L1_GET_INSTR     74605367      0.00%      0.00% (Unspecified)
board.cache_hierarchy.ruby_system.L2Cache_Controller.L1_GETS     55603569      0.00%      0.00% (Unspecified)
board.cache_hierarchy.ruby_system.L2Cache_Controller.L1_GETX     13816464      0.00%      0.00% (Unspecified)
board.cache_hierarchy.ruby_system.L2Cache_Controller.L1_UPGRADE       309933      0.00%      0.00% (Unspecified)
board.cache_hierarchy.ruby_system.L2Cache_Controller.L1_PUTX     43668576      0.00%      0.00% (Unspecified)
board.cache_hierarchy.ruby_system.L2Cache_Controller.L1_PUTX_old         9175      0.00%      0.00% (Unspecified)
board.cache_hierarchy.ruby_system.L2Cache_Controller.L2_Replacement     11195754      0.00%      0.00% (Unspecified)
board.cache_hierarchy.ruby_system.L2Cache_Controller.L2_Replacement_clean     87543992      0.00%      0.00% (Unspecified)
board.cache_hierarchy.ruby_system.L2Cache_Controller.Mem_Data     98753680      0.00%      0.00% (Unspecified)
board.cache_hierarchy.ruby_system.L2Cache_Controller.Mem_Ack     98749587      0.00%      0.00% (Unspecified)
board.cache_hierarchy.ruby_system.L2Cache_Controller.WB_Data      8621522      0.00%      0.00% (Unspecified)
board.cache_hierarchy.ruby_system.L2Cache_Controller.WB_Data_clean      1283426      0.00%      0.00% (Unspecified)
board.cache_hierarchy.ruby_system.L2Cache_Controller.Ack     17130239      0.00%      0.00% (Unspecified)
board.cache_hierarchy.ruby_system.L2Cache_Controller.Ack_all     58344389      0.00%      0.00% (Unspecified)
board.cache_hierarchy.ruby_system.L2Cache_Controller.Unblock      1634423      0.00%      0.00% (Unspecified)
board.cache_hierarchy.ruby_system.L2Cache_Controller.Exclusive_Unblock     65196273      0.00%      0.00% (Unspecified)
board.cache_hierarchy.ruby_system.L2Cache_Controller.MEM_Inv        19682      0.00%      0.00% (Unspecified)
board.cache_hierarchy.ruby_system.L2Cache_Controller.NP.L1_GET_INSTR     45204138      0.00%      0.00% (Unspecified)
board.cache_hierarchy.ruby_system.L2Cache_Controller.NP.L1_GETS     41096829      0.00%      0.00% (Unspecified)
board.cache_hierarchy.ruby_system.L2Cache_Controller.NP.L1_GETX     12452716      0.00%      0.00% (Unspecified)
board.cache_hierarchy.ruby_system.L2Cache_Controller.NP.L1_PUTX_old         4531      0.00%      0.00% (Unspecified)
board.cache_hierarchy.ruby_system.L2Cache_Controller.SS.L1_GET_INSTR     27195935      0.00%      0.00% (Unspecified)
board.cache_hierarchy.ruby_system.L2Cache_Controller.SS.L1_GETS      2021241      0.00%      0.00% (Unspecified)
board.cache_hierarchy.ruby_system.L2Cache_Controller.SS.L1_GETX         8021      0.00%      0.00% (Unspecified)
board.cache_hierarchy.ruby_system.L2Cache_Controller.SS.L1_UPGRADE       298609      0.00%      0.00% (Unspecified)
board.cache_hierarchy.ruby_system.L2Cache_Controller.SS.L1_PUTX           86      0.00%      0.00% (Unspecified)
board.cache_hierarchy.ruby_system.L2Cache_Controller.SS.L2_Replacement       114674      0.00%      0.00% (Unspecified)
board.cache_hierarchy.ruby_system.L2Cache_Controller.SS.L2_Replacement_clean     46732678      0.00%      0.00% (Unspecified)
board.cache_hierarchy.ruby_system.L2Cache_Controller.M.L1_GET_INSTR         2032      0.00%      0.00% (Unspecified)
board.cache_hierarchy.ruby_system.L2Cache_Controller.M.L1_GETS     10331028      0.00%      0.00% (Unspecified)
board.cache_hierarchy.ruby_system.L2Cache_Controller.M.L1_GETX      1198452      0.00%      0.00% (Unspecified)
board.cache_hierarchy.ruby_system.L2Cache_Controller.M.L2_Replacement     10408356      0.00%      0.00% (Unspecified)
board.cache_hierarchy.ruby_system.L2Cache_Controller.M.L2_Replacement_clean     21721077      0.00%      0.00% (Unspecified)
board.cache_hierarchy.ruby_system.L2Cache_Controller.M.MEM_Inv         5240      0.00%      0.00% (Unspecified)
board.cache_hierarchy.ruby_system.L2Cache_Controller.MT.L1_GET_INSTR           84      0.00%      0.00% (Unspecified)
board.cache_hierarchy.ruby_system.L2Cache_Controller.MT.L1_GETS      1634339      0.00%      0.00% (Unspecified)
board.cache_hierarchy.ruby_system.L2Cache_Controller.MT.L1_GETX       124897      0.00%      0.00% (Unspecified)
board.cache_hierarchy.ruby_system.L2Cache_Controller.MT.L1_PUTX     43668402      0.00%      0.00% (Unspecified)
board.cache_hierarchy.ruby_system.L2Cache_Controller.MT.L1_PUTX_old            5      0.00%      0.00% (Unspecified)
board.cache_hierarchy.ruby_system.L2Cache_Controller.MT.L2_Replacement       672724      0.00%      0.00% (Unspecified)
board.cache_hierarchy.ruby_system.L2Cache_Controller.MT.L2_Replacement_clean     19090237      0.00%      0.00% (Unspecified)
board.cache_hierarchy.ruby_system.L2Cache_Controller.MT.MEM_Inv         4601      0.00%      0.00% (Unspecified)
board.cache_hierarchy.ruby_system.L2Cache_Controller.M_I.L1_GET_INSTR        22353      0.00%      0.00% (Unspecified)
board.cache_hierarchy.ruby_system.L2Cache_Controller.M_I.L1_GETS        43838      0.00%      0.00% (Unspecified)
board.cache_hierarchy.ruby_system.L2Cache_Controller.M_I.L1_GETX        20416      0.00%      0.00% (Unspecified)
board.cache_hierarchy.ruby_system.L2Cache_Controller.M_I.L1_PUTX_old          123      0.00%      0.00% (Unspecified)
board.cache_hierarchy.ruby_system.L2Cache_Controller.M_I.Mem_Ack     98749587      0.00%      0.00% (Unspecified)
board.cache_hierarchy.ruby_system.L2Cache_Controller.M_I.MEM_Inv         5240      0.00%      0.00% (Unspecified)
board.cache_hierarchy.ruby_system.L2Cache_Controller.MT_I.L1_GETS            3      0.00%      0.00% (Unspecified)
board.cache_hierarchy.ruby_system.L2Cache_Controller.MT_I.L1_PUTX_old          175      0.00%      0.00% (Unspecified)
board.cache_hierarchy.ruby_system.L2Cache_Controller.MT_I.WB_Data       542868      0.00%      0.00% (Unspecified)
board.cache_hierarchy.ruby_system.L2Cache_Controller.MT_I.WB_Data_clean           43      0.00%      0.00% (Unspecified)
board.cache_hierarchy.ruby_system.L2Cache_Controller.MT_I.Ack_all       134414      0.00%      0.00% (Unspecified)
board.cache_hierarchy.ruby_system.L2Cache_Controller.MT_I.MEM_Inv         4601      0.00%      0.00% (Unspecified)
board.cache_hierarchy.ruby_system.L2Cache_Controller.MCT_I.L1_GETS          133      0.00%      0.00% (Unspecified)
board.cache_hierarchy.ruby_system.L2Cache_Controller.MCT_I.L1_GETX           12      0.00%      0.00% (Unspecified)
board.cache_hierarchy.ruby_system.L2Cache_Controller.MCT_I.L1_PUTX_old         4341      0.00%      0.00% (Unspecified)
board.cache_hierarchy.ruby_system.L2Cache_Controller.MCT_I.WB_Data      7724840      0.00%      0.00% (Unspecified)
board.cache_hierarchy.ruby_system.L2Cache_Controller.MCT_I.WB_Data_clean         2774      0.00%      0.00% (Unspecified)
board.cache_hierarchy.ruby_system.L2Cache_Controller.MCT_I.Ack_all     11362623      0.00%      0.00% (Unspecified)
board.cache_hierarchy.ruby_system.L2Cache_Controller.I_I.L1_GET_INSTR          979      0.00%      0.00% (Unspecified)
board.cache_hierarchy.ruby_system.L2Cache_Controller.I_I.L1_GETS          123      0.00%      0.00% (Unspecified)
board.cache_hierarchy.ruby_system.L2Cache_Controller.I_I.Ack     16942420      0.00%      0.00% (Unspecified)
board.cache_hierarchy.ruby_system.L2Cache_Controller.I_I.Ack_all     46732678      0.00%      0.00% (Unspecified)
board.cache_hierarchy.ruby_system.L2Cache_Controller.S_I.L1_GETS            1      0.00%      0.00% (Unspecified)
board.cache_hierarchy.ruby_system.L2Cache_Controller.S_I.L1_GETX            2      0.00%      0.00% (Unspecified)
board.cache_hierarchy.ruby_system.L2Cache_Controller.S_I.Ack       187819      0.00%      0.00% (Unspecified)
board.cache_hierarchy.ruby_system.L2Cache_Controller.S_I.Ack_all       114674      0.00%      0.00% (Unspecified)
board.cache_hierarchy.ruby_system.L2Cache_Controller.ISS.L1_GET_INSTR            1      0.00%      0.00% (Unspecified)
board.cache_hierarchy.ruby_system.L2Cache_Controller.ISS.L1_GETS       314277      0.00%      0.00% (Unspecified)
board.cache_hierarchy.ruby_system.L2Cache_Controller.ISS.L1_GETX          115      0.00%      0.00% (Unspecified)
board.cache_hierarchy.ruby_system.L2Cache_Controller.ISS.Mem_Data     40782550      0.00%      0.00% (Unspecified)
board.cache_hierarchy.ruby_system.L2Cache_Controller.IS.L1_GET_INSTR      2179843      0.00%      0.00% (Unspecified)
board.cache_hierarchy.ruby_system.L2Cache_Controller.IS.L1_GETS        88661      0.00%      0.00% (Unspecified)
board.cache_hierarchy.ruby_system.L2Cache_Controller.IS.L1_GETX            4      0.00%      0.00% (Unspecified)
board.cache_hierarchy.ruby_system.L2Cache_Controller.IS.Mem_Data     45518414      0.00%      0.00% (Unspecified)
board.cache_hierarchy.ruby_system.L2Cache_Controller.IM.L1_GETS           82      0.00%      0.00% (Unspecified)
board.cache_hierarchy.ruby_system.L2Cache_Controller.IM.L1_GETX         1061      0.00%      0.00% (Unspecified)
board.cache_hierarchy.ruby_system.L2Cache_Controller.IM.Mem_Data     12452716      0.00%      0.00% (Unspecified)
board.cache_hierarchy.ruby_system.L2Cache_Controller.SS_MB.L1_GETS        27792      0.00%      0.00% (Unspecified)
board.cache_hierarchy.ruby_system.L2Cache_Controller.SS_MB.L1_GETX         2038      0.00%      0.00% (Unspecified)
board.cache_hierarchy.ruby_system.L2Cache_Controller.SS_MB.L1_UPGRADE         8355      0.00%      0.00% (Unspecified)
board.cache_hierarchy.ruby_system.L2Cache_Controller.SS_MB.Exclusive_Unblock       306630      0.00%      0.00% (Unspecified)
board.cache_hierarchy.ruby_system.L2Cache_Controller.MT_MB.L1_GETS        10891      0.00%      0.00% (Unspecified)
board.cache_hierarchy.ruby_system.L2Cache_Controller.MT_MB.L1_GETX         8122      0.00%      0.00% (Unspecified)
board.cache_hierarchy.ruby_system.L2Cache_Controller.MT_MB.L1_PUTX            5      0.00%      0.00% (Unspecified)
board.cache_hierarchy.ruby_system.L2Cache_Controller.MT_MB.Exclusive_Unblock     64889643      0.00%      0.00% (Unspecified)
board.cache_hierarchy.ruby_system.L2Cache_Controller.MT_IIB.L1_GET_INSTR            2      0.00%      0.00% (Unspecified)
board.cache_hierarchy.ruby_system.L2Cache_Controller.MT_IIB.L1_GETS        33068      0.00%      0.00% (Unspecified)
board.cache_hierarchy.ruby_system.L2Cache_Controller.MT_IIB.L1_GETX          506      0.00%      0.00% (Unspecified)
board.cache_hierarchy.ruby_system.L2Cache_Controller.MT_IIB.L1_UPGRADE            1      0.00%      0.00% (Unspecified)
board.cache_hierarchy.ruby_system.L2Cache_Controller.MT_IIB.L1_PUTX           83      0.00%      0.00% (Unspecified)
board.cache_hierarchy.ruby_system.L2Cache_Controller.MT_IIB.WB_Data       343394      0.00%      0.00% (Unspecified)
board.cache_hierarchy.ruby_system.L2Cache_Controller.MT_IIB.WB_Data_clean      1265328      0.00%      0.00% (Unspecified)
board.cache_hierarchy.ruby_system.L2Cache_Controller.MT_IIB.Unblock        25701      0.00%      0.00% (Unspecified)
board.cache_hierarchy.ruby_system.L2Cache_Controller.MT_IB.WB_Data        10420      0.00%      0.00% (Unspecified)
board.cache_hierarchy.ruby_system.L2Cache_Controller.MT_IB.WB_Data_clean        15281      0.00%      0.00% (Unspecified)
board.cache_hierarchy.ruby_system.L2Cache_Controller.MT_SB.L1_GETS         1263      0.00%      0.00% (Unspecified)
board.cache_hierarchy.ruby_system.L2Cache_Controller.MT_SB.L1_GETX          102      0.00%      0.00% (Unspecified)
board.cache_hierarchy.ruby_system.L2Cache_Controller.MT_SB.L1_UPGRADE         2968      0.00%      0.00% (Unspecified)
board.cache_hierarchy.ruby_system.L2Cache_Controller.MT_SB.Unblock      1608722      0.00%      0.00% (Unspecified)
board.cache_hierarchy.ruby_system.RequestType.LD.latency_hist_seqr::bucket_size         2048                       (Unspecified)
board.cache_hierarchy.ruby_system.RequestType.LD.latency_hist_seqr::max_bucket        20479                       (Unspecified)
board.cache_hierarchy.ruby_system.RequestType.LD.latency_hist_seqr::samples   1171471989                       (Unspecified)
board.cache_hierarchy.ruby_system.RequestType.LD.latency_hist_seqr::mean    10.519077                       (Unspecified)
board.cache_hierarchy.ruby_system.RequestType.LD.latency_hist_seqr::gmean     1.255529                       (Unspecified)
board.cache_hierarchy.ruby_system.RequestType.LD.latency_hist_seqr::stdev    54.995577                       (Unspecified)
board.cache_hierarchy.ruby_system.RequestType.LD.latency_hist_seqr |  1171468304    100.00%    100.00% |        3339      0.00%    100.00% |         229      0.00%    100.00% |          61      0.00%    100.00% |          40      0.00%    100.00% |           7      0.00%    100.00% |           6      0.00%    100.00% |           1      0.00%    100.00% |           1      0.00%    100.00% |           1      0.00%    100.00% (Unspecified)
board.cache_hierarchy.ruby_system.RequestType.LD.latency_hist_seqr::total   1171471989                       (Unspecified)
board.cache_hierarchy.ruby_system.RequestType.LD.hit_latency_hist_seqr::bucket_size            1                       (Unspecified)
board.cache_hierarchy.ruby_system.RequestType.LD.hit_latency_hist_seqr::max_bucket            9                       (Unspecified)
board.cache_hierarchy.ruby_system.RequestType.LD.hit_latency_hist_seqr::samples   1116020627                       (Unspecified)
board.cache_hierarchy.ruby_system.RequestType.LD.hit_latency_hist_seqr::mean     1.000938                       (Unspecified)
board.cache_hierarchy.ruby_system.RequestType.LD.hit_latency_hist_seqr::gmean     1.000651                       (Unspecified)
board.cache_hierarchy.ruby_system.RequestType.LD.hit_latency_hist_seqr::stdev     0.030627                       (Unspecified)
board.cache_hierarchy.ruby_system.RequestType.LD.hit_latency_hist_seqr |           0      0.00%      0.00% |  1114973525     99.91%     99.91% |     1046873      0.09%    100.00% |         226      0.00%    100.00% |           3      0.00%    100.00% |           0      0.00%    100.00% |           0      0.00%    100.00% |           0      0.00%    100.00% |           0      0.00%    100.00% |           0      0.00%    100.00% (Unspecified)
board.cache_hierarchy.ruby_system.RequestType.LD.hit_latency_hist_seqr::total   1116020627                       (Unspecified)
board.cache_hierarchy.ruby_system.RequestType.LD.miss_latency_hist_seqr::bucket_size         2048                       (Unspecified)
board.cache_hierarchy.ruby_system.RequestType.LD.miss_latency_hist_seqr::max_bucket        20479                       (Unspecified)
board.cache_hierarchy.ruby_system.RequestType.LD.miss_latency_hist_seqr::samples     55451362                       (Unspecified)
board.cache_hierarchy.ruby_system.RequestType.LD.miss_latency_hist_seqr::mean   202.082249                       (Unspecified)
board.cache_hierarchy.ruby_system.RequestType.LD.miss_latency_hist_seqr::gmean   120.820140                       (Unspecified)
board.cache_hierarchy.ruby_system.RequestType.LD.miss_latency_hist_seqr::stdev   159.299830                       (Unspecified)
board.cache_hierarchy.ruby_system.RequestType.LD.miss_latency_hist_seqr |    55447677     99.99%     99.99% |        3339      0.01%    100.00% |         229      0.00%    100.00% |          61      0.00%    100.00% |          40      0.00%    100.00% |           7      0.00%    100.00% |           6      0.00%    100.00% |           1      0.00%    100.00% |           1      0.00%    100.00% |           1      0.00%    100.00% (Unspecified)
board.cache_hierarchy.ruby_system.RequestType.LD.miss_latency_hist_seqr::total     55451362                       (Unspecified)
board.cache_hierarchy.ruby_system.RequestType.ST.latency_hist_seqr::bucket_size         2048                       (Unspecified)
board.cache_hierarchy.ruby_system.RequestType.ST.latency_hist_seqr::max_bucket        20479                       (Unspecified)
board.cache_hierarchy.ruby_system.RequestType.ST.latency_hist_seqr::samples    656437140                       (Unspecified)
board.cache_hierarchy.ruby_system.RequestType.ST.latency_hist_seqr::mean     5.233420                       (Unspecified)
board.cache_hierarchy.ruby_system.RequestType.ST.latency_hist_seqr::gmean     1.115676                       (Unspecified)
board.cache_hierarchy.ruby_system.RequestType.ST.latency_hist_seqr::stdev    36.793916                       (Unspecified)
board.cache_hierarchy.ruby_system.RequestType.ST.latency_hist_seqr |   656436295    100.00%    100.00% |         753      0.00%    100.00% |          55      0.00%    100.00% |          21      0.00%    100.00% |           6      0.00%    100.00% |           4      0.00%    100.00% |           4      0.00%    100.00% |           1      0.00%    100.00% |           0      0.00%    100.00% |           1      0.00%    100.00% (Unspecified)
board.cache_hierarchy.ruby_system.RequestType.ST.latency_hist_seqr::total    656437140                       (Unspecified)
board.cache_hierarchy.ruby_system.RequestType.ST.hit_latency_hist_seqr::bucket_size         2048                       (Unspecified)
board.cache_hierarchy.ruby_system.RequestType.ST.hit_latency_hist_seqr::max_bucket        20479                       (Unspecified)
board.cache_hierarchy.ruby_system.RequestType.ST.hit_latency_hist_seqr::samples    644358957                       (Unspecified)
board.cache_hierarchy.ruby_system.RequestType.ST.hit_latency_hist_seqr::mean     1.068530                       (Unspecified)
board.cache_hierarchy.ruby_system.RequestType.ST.hit_latency_hist_seqr::gmean     1.014776                       (Unspecified)
board.cache_hierarchy.ruby_system.RequestType.ST.hit_latency_hist_seqr::stdev     3.942013                       (Unspecified)
board.cache_hierarchy.ruby_system.RequestType.ST.hit_latency_hist_seqr |   644358951    100.00%    100.00% |           4      0.00%    100.00% |           0      0.00%    100.00% |           1      0.00%    100.00% |           0      0.00%    100.00% |           0      0.00%    100.00% |           0      0.00%    100.00% |           0      0.00%    100.00% |           0      0.00%    100.00% |           1      0.00%    100.00% (Unspecified)
board.cache_hierarchy.ruby_system.RequestType.ST.hit_latency_hist_seqr::total    644358957                       (Unspecified)
board.cache_hierarchy.ruby_system.RequestType.ST.miss_latency_hist_seqr::bucket_size         2048                       (Unspecified)
board.cache_hierarchy.ruby_system.RequestType.ST.miss_latency_hist_seqr::max_bucket        20479                       (Unspecified)
board.cache_hierarchy.ruby_system.RequestType.ST.miss_latency_hist_seqr::samples     12078183                       (Unspecified)
board.cache_hierarchy.ruby_system.RequestType.ST.miss_latency_hist_seqr::mean   227.426122                       (Unspecified)
board.cache_hierarchy.ruby_system.RequestType.ST.miss_latency_hist_seqr::gmean   175.307942                       (Unspecified)
board.cache_hierarchy.ruby_system.RequestType.ST.miss_latency_hist_seqr::stdev   149.844028                       (Unspecified)
board.cache_hierarchy.ruby_system.RequestType.ST.miss_latency_hist_seqr |    12077344     99.99%     99.99% |         749      0.01%    100.00% |          55      0.00%    100.00% |          20      0.00%    100.00% |           6      0.00%    100.00% |           4      0.00%    100.00% |           4      0.00%    100.00% |           1      0.00%    100.00% |           0      0.00%    100.00% |           0      0.00%    100.00% (Unspecified)
board.cache_hierarchy.ruby_system.RequestType.ST.miss_latency_hist_seqr::total     12078183                       (Unspecified)
board.cache_hierarchy.ruby_system.RequestType.IFETCH.latency_hist_seqr::bucket_size         2048                       (Unspecified)
board.cache_hierarchy.ruby_system.RequestType.IFETCH.latency_hist_seqr::max_bucket        20479                       (Unspecified)
board.cache_hierarchy.ruby_system.RequestType.IFETCH.latency_hist_seqr::samples    850580617                       (Unspecified)
board.cache_hierarchy.ruby_system.RequestType.IFETCH.latency_hist_seqr::mean    15.380723                       (Unspecified)
board.cache_hierarchy.ruby_system.RequestType.IFETCH.latency_hist_seqr::gmean     1.470900                       (Unspecified)
board.cache_hierarchy.ruby_system.RequestType.IFETCH.latency_hist_seqr::stdev    65.687625                       (Unspecified)
board.cache_hierarchy.ruby_system.RequestType.IFETCH.latency_hist_seqr |   850576265    100.00%    100.00% |        4011      0.00%    100.00% |         244      0.00%    100.00% |          66      0.00%    100.00% |          22      0.00%    100.00% |           4      0.00%    100.00% |           3      0.00%    100.00% |           1      0.00%    100.00% |           1      0.00%    100.00% |           0      0.00%    100.00% (Unspecified)
board.cache_hierarchy.ruby_system.RequestType.IFETCH.latency_hist_seqr::total    850580617                       (Unspecified)
board.cache_hierarchy.ruby_system.RequestType.IFETCH.hit_latency_hist_seqr::bucket_size            1                       (Unspecified)
board.cache_hierarchy.ruby_system.RequestType.IFETCH.hit_latency_hist_seqr::max_bucket            9                       (Unspecified)
board.cache_hierarchy.ruby_system.RequestType.IFETCH.hit_latency_hist_seqr::samples    776044082                       (Unspecified)
board.cache_hierarchy.ruby_system.RequestType.IFETCH.hit_latency_hist_seqr::mean     1.000002                       (Unspecified)
board.cache_hierarchy.ruby_system.RequestType.IFETCH.hit_latency_hist_seqr::gmean     1.000001                       (Unspecified)
board.cache_hierarchy.ruby_system.RequestType.IFETCH.hit_latency_hist_seqr::stdev     0.001303                       (Unspecified)
board.cache_hierarchy.ruby_system.RequestType.IFETCH.hit_latency_hist_seqr |           0      0.00%      0.00% |   776042819    100.00%    100.00% |        1245      0.00%    100.00% |          18      0.00%    100.00% |           0      0.00%    100.00% |           0      0.00%    100.00% |           0      0.00%    100.00% |           0      0.00%    100.00% |           0      0.00%    100.00% |           0      0.00%    100.00% (Unspecified)
board.cache_hierarchy.ruby_system.RequestType.IFETCH.hit_latency_hist_seqr::total    776044082                       (Unspecified)
board.cache_hierarchy.ruby_system.RequestType.IFETCH.miss_latency_hist_seqr::bucket_size         2048                       (Unspecified)
board.cache_hierarchy.ruby_system.RequestType.IFETCH.miss_latency_hist_seqr::max_bucket        20479                       (Unspecified)
board.cache_hierarchy.ruby_system.RequestType.IFETCH.miss_latency_hist_seqr::samples     74536535                       (Unspecified)
board.cache_hierarchy.ruby_system.RequestType.IFETCH.miss_latency_hist_seqr::mean   165.106949                       (Unspecified)
board.cache_hierarchy.ruby_system.RequestType.IFETCH.miss_latency_hist_seqr::gmean    81.730763                       (Unspecified)
board.cache_hierarchy.ruby_system.RequestType.IFETCH.miss_latency_hist_seqr::stdev   157.061644                       (Unspecified)
board.cache_hierarchy.ruby_system.RequestType.IFETCH.miss_latency_hist_seqr |    74532183     99.99%     99.99% |        4011      0.01%    100.00% |         244      0.00%    100.00% |          66      0.00%    100.00% |          22      0.00%    100.00% |           4      0.00%    100.00% |           3      0.00%    100.00% |           1      0.00%    100.00% |           1      0.00%    100.00% |           0      0.00%    100.00% (Unspecified)
board.cache_hierarchy.ruby_system.RequestType.IFETCH.miss_latency_hist_seqr::total     74536535                       (Unspecified)
board.cache_hierarchy.ruby_system.RequestType.RMW_Read.latency_hist_seqr::bucket_size         2048                       (Unspecified)
board.cache_hierarchy.ruby_system.RequestType.RMW_Read.latency_hist_seqr::max_bucket        20479                       (Unspecified)
board.cache_hierarchy.ruby_system.RequestType.RMW_Read.latency_hist_seqr::samples     21656763                       (Unspecified)
board.cache_hierarchy.ruby_system.RequestType.RMW_Read.latency_hist_seqr::mean    17.560198                       (Unspecified)
board.cache_hierarchy.ruby_system.RequestType.RMW_Read.latency_hist_seqr::gmean     1.517296                       (Unspecified)
board.cache_hierarchy.ruby_system.RequestType.RMW_Read.latency_hist_seqr::stdev    74.539959                       (Unspecified)
board.cache_hierarchy.ruby_system.RequestType.RMW_Read.latency_hist_seqr |    21656573    100.00%    100.00% |         158      0.00%    100.00% |          18      0.00%    100.00% |           9      0.00%    100.00% |           2      0.00%    100.00% |           2      0.00%    100.00% |           1      0.00%    100.00% |           0      0.00%    100.00% |           0      0.00%    100.00% |           0      0.00%    100.00% (Unspecified)
board.cache_hierarchy.ruby_system.RequestType.RMW_Read.latency_hist_seqr::total     21656763                       (Unspecified)
board.cache_hierarchy.ruby_system.RequestType.RMW_Read.hit_latency_hist_seqr::bucket_size          512                       (Unspecified)
board.cache_hierarchy.ruby_system.RequestType.RMW_Read.hit_latency_hist_seqr::max_bucket         5119                       (Unspecified)
board.cache_hierarchy.ruby_system.RequestType.RMW_Read.hit_latency_hist_seqr::samples     20307966                       (Unspecified)
board.cache_hierarchy.ruby_system.RequestType.RMW_Read.hit_latency_hist_seqr::mean     3.780159                       (Unspecified)
board.cache_hierarchy.ruby_system.RequestType.RMW_Read.hit_latency_hist_seqr::gmean     1.122579                       (Unspecified)
board.cache_hierarchy.ruby_system.RequestType.RMW_Read.hit_latency_hist_seqr::stdev    29.380444                       (Unspecified)
board.cache_hierarchy.ruby_system.RequestType.RMW_Read.hit_latency_hist_seqr |    20298824     99.95%     99.95% |        7800      0.04%     99.99% |        1266      0.01%    100.00% |          64      0.00%    100.00% |           8      0.00%    100.00% |           4      0.00%    100.00% |           0      0.00%    100.00% |           0      0.00%    100.00% |           0      0.00%    100.00% |           0      0.00%    100.00% (Unspecified)
board.cache_hierarchy.ruby_system.RequestType.RMW_Read.hit_latency_hist_seqr::total     20307966                       (Unspecified)
board.cache_hierarchy.ruby_system.RequestType.RMW_Read.miss_latency_hist_seqr::bucket_size         2048                       (Unspecified)
board.cache_hierarchy.ruby_system.RequestType.RMW_Read.miss_latency_hist_seqr::max_bucket        20479                       (Unspecified)
board.cache_hierarchy.ruby_system.RequestType.RMW_Read.miss_latency_hist_seqr::samples      1348797                       (Unspecified)
board.cache_hierarchy.ruby_system.RequestType.RMW_Read.miss_latency_hist_seqr::mean   225.037353                       (Unspecified)
board.cache_hierarchy.ruby_system.RequestType.RMW_Read.miss_latency_hist_seqr::gmean   141.660117                       (Unspecified)
board.cache_hierarchy.ruby_system.RequestType.RMW_Read.miss_latency_hist_seqr::stdev   174.097129                       (Unspecified)
board.cache_hierarchy.ruby_system.RequestType.RMW_Read.miss_latency_hist_seqr |     1348619     99.99%     99.99% |         146      0.01%    100.00% |          18      0.00%    100.00% |           9      0.00%    100.00% |           2      0.00%    100.00% |           2      0.00%    100.00% |           1      0.00%    100.00% |           0      0.00%    100.00% |           0      0.00%    100.00% |           0      0.00%    100.00% (Unspecified)
board.cache_hierarchy.ruby_system.RequestType.RMW_Read.miss_latency_hist_seqr::total      1348797                       (Unspecified)
board.cache_hierarchy.ruby_system.RequestType.Locked_RMW_Read.latency_hist_seqr::bucket_size         2048                       (Unspecified)
board.cache_hierarchy.ruby_system.RequestType.Locked_RMW_Read.latency_hist_seqr::max_bucket        20479                       (Unspecified)
board.cache_hierarchy.ruby_system.RequestType.Locked_RMW_Read.latency_hist_seqr::samples      4314754                       (Unspecified)
board.cache_hierarchy.ruby_system.RequestType.Locked_RMW_Read.latency_hist_seqr::mean    25.233534                       (Unspecified)
board.cache_hierarchy.ruby_system.RequestType.Locked_RMW_Read.latency_hist_seqr::gmean     1.914232                       (Unspecified)
board.cache_hierarchy.ruby_system.RequestType.Locked_RMW_Read.latency_hist_seqr::stdev    88.715873                       (Unspecified)
board.cache_hierarchy.ruby_system.RequestType.Locked_RMW_Read.latency_hist_seqr |     4314702    100.00%    100.00% |          43      0.00%    100.00% |           4      0.00%    100.00% |           3      0.00%    100.00% |           1      0.00%    100.00% |           0      0.00%    100.00% |           0      0.00%    100.00% |           1      0.00%    100.00% |           0      0.00%    100.00% |           0      0.00%    100.00% (Unspecified)
board.cache_hierarchy.ruby_system.RequestType.Locked_RMW_Read.latency_hist_seqr::total      4314754                       (Unspecified)
board.cache_hierarchy.ruby_system.RequestType.Locked_RMW_Read.hit_latency_hist_seqr::bucket_size          256                       (Unspecified)
board.cache_hierarchy.ruby_system.RequestType.Locked_RMW_Read.hit_latency_hist_seqr::max_bucket         2559                       (Unspecified)
board.cache_hierarchy.ruby_system.RequestType.Locked_RMW_Read.hit_latency_hist_seqr::samples      3678739                       (Unspecified)
board.cache_hierarchy.ruby_system.RequestType.Locked_RMW_Read.hit_latency_hist_seqr::mean     1.146435                       (Unspecified)
[...]
board.processor.cores9.core.fetch.nisnDist::stdev     2.294027                       # Number of instructions fetched each cycle (Total) (Count)
board.processor.cores9.core.fetch.nisnDist::underflows            0      0.00%      0.00% # Number of instructions fetched each cycle (Total) (Count)
board.processor.cores9.core.fetch.nisnDist::0    972895886     85.58%     85.58% # Number of instructions fetched each cycle (Total) (Count)
board.processor.cores9.core.fetch.nisnDist::1     11133929      0.98%     86.56% # Number of instructions fetched each cycle (Total) (Count)
board.processor.cores9.core.fetch.nisnDist::2      9227739      0.81%     87.37% # Number of instructions fetched each cycle (Total) (Count)
board.processor.cores9.core.fetch.nisnDist::3     11836147      1.04%     88.41% # Number of instructions fetched each cycle (Total) (Count)
board.processor.cores9.core.fetch.nisnDist::4     18385107      1.62%     90.03% # Number of instructions fetched each cycle (Total) (Count)
board.processor.cores9.core.fetch.nisnDist::5     13088391      1.15%     91.18% # Number of instructions fetched each cycle (Total) (Count)
board.processor.cores9.core.fetch.nisnDist::6      8661629      0.76%     91.94% # Number of instructions fetched each cycle (Total) (Count)
board.processor.cores9.core.fetch.nisnDist::7      8232525      0.72%     92.66% # Number of instructions fetched each cycle (Total) (Count)
board.processor.cores9.core.fetch.nisnDist::8     83407525      7.34%    100.00% # Number of instructions fetched each cycle (Total) (Count)
board.processor.cores9.core.fetch.nisnDist::overflows            0      0.00%    100.00% # Number of instructions fetched each cycle (Total) (Count)
board.processor.cores9.core.fetch.nisnDist::min_value            0                       # Number of instructions fetched each cycle (Total) (Count)
board.processor.cores9.core.fetch.nisnDist::max_value            8                       # Number of instructions fetched each cycle (Total) (Count)
board.processor.cores9.core.fetch.nisnDist::total   1136868878                       # Number of instructions fetched each cycle (Total) (Count)
board.processor.cores9.core.fetch.branchRate     0.050792                       # Number of branch fetches per cycle (Ratio)
board.processor.cores9.core.fetch.rate       0.237188                       # Number of inst fetches per cycle ((Count/Cycle))
board.processor.cores9.core.iew.idleCycles            0                       # Number of cycles IEW is idle (Cycle)
board.processor.cores9.core.iew.squashCycles      7906977                       # Number of cycles IEW is squashing (Cycle)
board.processor.cores9.core.iew.blockCycles    123780176                       # Number of cycles IEW is blocking (Cycle)
board.processor.cores9.core.iew.unblockCycles     89540480                       # Number of cycles IEW is unblocking (Cycle)
board.processor.cores9.core.iew.dispatchedInsts    851637555                       # Number of instructions dispatched to IQ (Count)
board.processor.cores9.core.iew.dispSquashedInsts       739656                       # Number of squashed instructions skipped by dispatch (Count)
board.processor.cores9.core.iew.dispLoadInsts    113057791                       # Number of dispatched load instructions (Count)
board.processor.cores9.core.iew.dispStoreInsts     73614097                       # Number of dispatched store instructions (Count)
board.processor.cores9.core.iew.dispNonSpecInsts      1874731                       # Number of dispatched non-speculative instructions (Count)
board.processor.cores9.core.iew.iqFullEvents       656814                       # Number of times the IQ has become full, causing a stall (Count)
board.processor.cores9.core.iew.lsqFullEvents     88190047                       # Number of times the LSQ has become full, causing a stall (Count)
board.processor.cores9.core.iew.memOrderViolationEvents       296621                       # Number of memory order violations (Count)
board.processor.cores9.core.iew.predictedTakenIncorrect      1596761                       # Number of branches that were predicted taken incorrectly (Count)
board.processor.cores9.core.iew.predictedNotTakenIncorrect      6475439                       # Number of branches that were predicted not taken incorrectly (Count)
board.processor.cores9.core.iew.branchMispredicts      8072200                       # Number of branch mispredicts detected at execute (Count)
board.processor.cores9.core.iew.instsToCommit    792860539                       # Cumulative count of insts sent to commit (Count)
board.processor.cores9.core.iew.writebackCount    787595882                       # Cumulative count of insts written-back (Count)
board.processor.cores9.core.iew.producerInst    549637129                       # Number of instructions producing a value (Count)
board.processor.cores9.core.iew.consumerInst    924190442                       # Number of instructions consuming a value (Count)
board.processor.cores9.core.iew.wbRate       0.376060                       # Insts written-back per cycle ((Count/Cycle))
board.processor.cores9.core.iew.wbFanout     0.594723                       # Average fanout of values written-back ((Count/Count))
board.processor.cores9.core.lsq0.forwLoads     13992052                       # Number of loads that had data forwarded from stores (Count)
board.processor.cores9.core.lsq0.squashedLoads     26315259                       # Number of loads squashed (Count)
board.processor.cores9.core.lsq0.ignoredResponses        80614                       # Number of memory responses ignored because the instruction is squashed (Count)
board.processor.cores9.core.lsq0.memOrderViolation       296621                       # Number of memory ordering violations (Count)
board.processor.cores9.core.lsq0.squashedStores     18749338                       # Number of stores squashed (Count)
board.processor.cores9.core.lsq0.rescheduledLoads        90341                       # Number of loads that were rescheduled (Count)
board.processor.cores9.core.lsq0.blockedByCache       108719                       # Number of times an access to memory failed due to the cache being blocked (Count)
board.processor.cores9.core.lsq0.loadToUse::samples     86623092                       # Distribution of cycle latency between the first time a load is issued and its completion (Unspecified)
board.processor.cores9.core.lsq0.loadToUse::mean    17.189159                       # Distribution of cycle latency between the first time a load is issued and its completion (Unspecified)
board.processor.cores9.core.lsq0.loadToUse::stdev    74.560627                       # Distribution of cycle latency between the first time a load is issued and its completion (Unspecified)
board.processor.cores9.core.lsq0.loadToUse::0-9     80930409     93.43%     93.43% # Distribution of cycle latency between the first time a load is issued and its completion (Unspecified)
board.processor.cores9.core.lsq0.loadToUse::10-19       770611      0.89%     94.32% # Distribution of cycle latency between the first time a load is issued and its completion (Unspecified)
board.processor.cores9.core.lsq0.loadToUse::20-29       568292      0.66%     94.97% # Distribution of cycle latency between the first time a load is issued and its completion (Unspecified)
board.processor.cores9.core.lsq0.loadToUse::30-39        72586      0.08%     95.06% # Distribution of cycle latency between the first time a load is issued and its completion (Unspecified)
board.processor.cores9.core.lsq0.loadToUse::40-49        47869      0.06%     95.11% # Distribution of cycle latency between the first time a load is issued and its completion (Unspecified)
board.processor.cores9.core.lsq0.loadToUse::50-59        91910      0.11%     95.22% # Distribution of cycle latency between the first time a load is issued and its completion (Unspecified)
board.processor.cores9.core.lsq0.loadToUse::60-69        34816      0.04%     95.26% # Distribution of cycle latency between the first time a load is issued and its completion (Unspecified)
board.processor.cores9.core.lsq0.loadToUse::70-79        15002      0.02%     95.28% # Distribution of cycle latency between the first time a load is issued and its completion (Unspecified)
board.processor.cores9.core.lsq0.loadToUse::80-89        15990      0.02%     95.30% # Distribution of cycle latency between the first time a load is issued and its completion (Unspecified)
board.processor.cores9.core.lsq0.loadToUse::90-99        35515      0.04%     95.34% # Distribution of cycle latency between the first time a load is issued and its completion (Unspecified)
board.processor.cores9.core.lsq0.loadToUse::100-109        19177      0.02%     95.36% # Distribution of cycle latency between the first time a load is issued and its completion (Unspecified)
board.processor.cores9.core.lsq0.loadToUse::110-119        19321      0.02%     95.38% # Distribution of cycle latency between the first time a load is issued and its completion (Unspecified)
board.processor.cores9.core.lsq0.loadToUse::120-129        26189      0.03%     95.41% # Distribution of cycle latency between the first time a load is issued and its completion (Unspecified)
board.processor.cores9.core.lsq0.loadToUse::130-139       121923      0.14%     95.55% # Distribution of cycle latency between the first time a load is issued and its completion (Unspecified)
board.processor.cores9.core.lsq0.loadToUse::140-149       287407      0.33%     95.88% # Distribution of cycle latency between the first time a load is issued and its completion (Unspecified)
board.processor.cores9.core.lsq0.loadToUse::150-159       103008      0.12%     96.00% # Distribution of cycle latency between the first time a load is issued and its completion (Unspecified)
board.processor.cores9.core.lsq0.loadToUse::160-169        72908      0.08%     96.09% # Distribution of cycle latency between the first time a load is issued and its completion (Unspecified)
board.processor.cores9.core.lsq0.loadToUse::170-179        58265      0.07%     96.15% # Distribution of cycle latency between the first time a load is issued and its completion (Unspecified)
board.processor.cores9.core.lsq0.loadToUse::180-189       122215      0.14%     96.29% # Distribution of cycle latency between the first time a load is issued and its completion (Unspecified)
board.processor.cores9.core.lsq0.loadToUse::190-199        85096      0.10%     96.39% # Distribution of cycle latency between the first time a load is issued and its completion (Unspecified)
board.processor.cores9.core.lsq0.loadToUse::200-209        77513      0.09%     96.48% # Distribution of cycle latency between the first time a load is issued and its completion (Unspecified)
board.processor.cores9.core.lsq0.loadToUse::210-219        89791      0.10%     96.59% # Distribution of cycle latency between the first time a load is issued and its completion (Unspecified)
board.processor.cores9.core.lsq0.loadToUse::220-229       448355      0.52%     97.10% # Distribution of cycle latency between the first time a load is issued and its completion (Unspecified)
board.processor.cores9.core.lsq0.loadToUse::230-239       377343      0.44%     97.54% # Distribution of cycle latency between the first time a load is issued and its completion (Unspecified)
board.processor.cores9.core.lsq0.loadToUse::240-249       261225      0.30%     97.84% # Distribution of cycle latency between the first time a load is issued and its completion (Unspecified)
board.processor.cores9.core.lsq0.loadToUse::250-259       173365      0.20%     98.04% # Distribution of cycle latency between the first time a load is issued and its completion (Unspecified)
board.processor.cores9.core.lsq0.loadToUse::260-269       136886      0.16%     98.20% # Distribution of cycle latency between the first time a load is issued and its completion (Unspecified)
board.processor.cores9.core.lsq0.loadToUse::270-279       114883      0.13%     98.33% # Distribution of cycle latency between the first time a load is issued and its completion (Unspecified)
board.processor.cores9.core.lsq0.loadToUse::280-289       106084      0.12%     98.45% # Distribution of cycle latency between the first time a load is issued and its completion (Unspecified)
board.processor.cores9.core.lsq0.loadToUse::290-299        95601      0.11%     98.56% # Distribution of cycle latency between the first time a load is issued and its completion (Unspecified)
board.processor.cores9.core.lsq0.loadToUse::overflows      1243537      1.44%    100.00% # Distribution of cycle latency between the first time a load is issued and its completion (Unspecified)
board.processor.cores9.core.lsq0.loadToUse::min_value            2                       # Distribution of cycle latency between the first time a load is issued and its completion (Unspecified)
board.processor.cores9.core.lsq0.loadToUse::max_value        18494                       # Distribution of cycle latency between the first time a load is issued and its completion (Unspecified)
board.processor.cores9.core.lsq0.loadToUse::total     86623092                       # Distribution of cycle latency between the first time a load is issued and its completion (Unspecified)
board.processor.cores9.core.mmu.dtb.rdAccesses    106791443                       # TLB accesses on read requests (Count)
board.processor.cores9.core.mmu.dtb.wrAccesses     67317631                       # TLB accesses on write requests (Count)
board.processor.cores9.core.mmu.dtb.rdMisses      2032259                       # TLB misses on read requests (Count)
board.processor.cores9.core.mmu.dtb.wrMisses       866185                       # TLB misses on write requests (Count)
board.processor.cores9.core.mmu.dtb.walker.power_state.pwrStateResidencyTicks::UNDEFINED 28746675759790                       # Cumulative time (in ticks) in various power states (Tick)
board.processor.cores9.core.mmu.itb.rdAccesses            0                       # TLB accesses on read requests (Count)
board.processor.cores9.core.mmu.itb.wrAccesses     68313278                       # TLB accesses on write requests (Count)
board.processor.cores9.core.mmu.itb.rdMisses            0                       # TLB misses on read requests (Count)
board.processor.cores9.core.mmu.itb.wrMisses      2101290                       # TLB misses on write requests (Count)
board.processor.cores9.core.mmu.itb.walker.power_state.pwrStateResidencyTicks::UNDEFINED 28746675759790                       # Cumulative time (in ticks) in various power states (Tick)
board.processor.cores9.core.power_state.numTransitions        10959                       # Number of power state transitions (Count)
board.processor.cores9.core.power_state.ticksClkGated::samples         5480                       # Distribution of time spent in the clock gated state (Tick)
board.processor.cores9.core.power_state.ticksClkGated::mean 292134867.841788                       # Distribution of time spent in the clock gated state (Tick)
board.processor.cores9.core.power_state.ticksClkGated::stdev 275012323.276323                       # Distribution of time spent in the clock gated state (Tick)
board.processor.cores9.core.power_state.ticksClkGated::1000-5e+10         5480    100.00%    100.00% # Distribution of time spent in the clock gated state (Tick)
board.processor.cores9.core.power_state.ticksClkGated::min_value       216783                       # Distribution of time spent in the clock gated state (Tick)
board.processor.cores9.core.power_state.ticksClkGated::max_value    999233433                       # Distribution of time spent in the clock gated state (Tick)
board.processor.cores9.core.power_state.ticksClkGated::total         5480                       # Distribution of time spent in the clock gated state (Tick)
board.processor.cores9.core.power_state.pwrStateResidencyTicks::ON 697412328878                       # Cumulative time (in ticks) in various power states (Tick)
board.processor.cores9.core.power_state.pwrStateResidencyTicks::CLK_GATED 1600899075773                       # Cumulative time (in ticks) in various power states (Tick)
board.processor.cores9.core.rename.squashCycles      7906977                       # Number of cycles rename is squashing (Cycle)
board.processor.cores9.core.rename.idleCycles    389726594                       # Number of cycles rename is idle (Cycle)
board.processor.cores9.core.rename.blockCycles    287545799                       # Number of cycles rename is blocking (Cycle)
board.processor.cores9.core.rename.serializeStallCycles    108850842                       # count of cycles rename stalled for serializing inst (Cycle)
board.processor.cores9.core.rename.runCycles    131230914                       # Number of cycles rename is running (Cycle)
board.processor.cores9.core.rename.unblockCycles    211607752                       # Number of cycles rename is unblocking (Cycle)
board.processor.cores9.core.rename.renamedInsts    874511013                       # Number of instructions processed by rename (Count)
board.processor.cores9.core.rename.ROBFullEvents      3780557                       # Number of times rename has blocked due to ROB full (Count)
board.processor.cores9.core.rename.IQFullEvents     28133861                       # Number of times rename has blocked due to IQ full (Count)
board.processor.cores9.core.rename.LQFullEvents     13373193                       # Number of times rename has blocked due to LQ full (Count)
board.processor.cores9.core.rename.SQFullEvents    166313551                       # Number of times rename has blocked due to SQ full (Count)
board.processor.cores9.core.rename.fullRegistersEvents          197                       # Number of times there has been no free registers (Count)
board.processor.cores9.core.rename.renamedOperands    966126705                       # Number of destination operands rename has renamed (Count)
board.processor.cores9.core.rename.lookups   2165380783                       # Number of register rename lookups that rename has made (Count)
board.processor.cores9.core.rename.intLookups   1319389519                       # Number of integer rename lookups (Count)
board.processor.cores9.core.rename.fpLookups     55254161                       # Number of floating rename lookups (Count)
board.processor.cores9.core.rename.committedMaps    763194255                       # Number of HB maps that are committed (Count)
board.processor.cores9.core.rename.undoneMaps    202932243                       # Number of HB maps that are undone due to squashing (Count)
board.processor.cores9.core.rename.serializing      1150663                       # count of serializing insts renamed (Count)
board.processor.cores9.core.rename.tempSerializing      1141620                       # count of temporary serializing insts renamed (Count)
board.processor.cores9.core.rename.skidInsts    101818142                       # count of insts added to the skid buffer (Count)
board.processor.cores9.core.rob.reads      1919679175                       # The number of ROB reads (Count)
board.processor.cores9.core.rob.writes     1723992175                       # The number of ROB writes (Count)
board.processor.cores9.core.thread_0.numInsts    346845158                       # Number of Instructions committed (Count)
board.processor.cores9.core.thread_0.numOps    673991216                       # Number of Ops committed (Count)
board.processor.cores9.core.thread_0.numMemRefs            0                       # Number of Memory References (Count)
board.workload.inst.arm                             0                       # number of arm instructions executed (Count)
board.workload.inst.quiesce                         0                       # number of quiesce instructions executed (Count)

---------- End Simulation Statistics   ----------
