
---------- Begin Simulation Statistics ----------
simSeconds                                   2.080470                       # Number of seconds simulated (Second)
simTicks                                 2080469904210                       # Number of ticks simulated (Tick)
finalTick                                22708591645699                       # Number of ticks from beginning of simulation (restored from checkpoints and never reset) (Tick)
simFreq                                  1000000000000                       # The number of ticks per simulated second ((Tick/Second))
hostSeconds                                  14996.31                       # Real time elapsed on the host (Second)
hostTickRate                                138732117                       # The number of ticks simulated per host second (ticks/s) ((Tick/Second))
hostMemory                                    3889232                       # Number of bytes of host memory used (Byte)
simInsts                                   5522977394                       # Number of instructions simulated (Count)
simOps                                     6830007790                       # Number of ops (including micro ops) simulated (Count)
hostInstRate                                   368289                       # Simulator instruction rate (inst/s) ((Count/Second))
hostOpRate                                     455446                       # Simulator op (including micro ops) rate (op/s) ((Count/Second))
board.cache_hierarchy.ruby_system.delayHistogram::bucket_size           16                       # delay histogram for all message (Unspecified)
board.cache_hierarchy.ruby_system.delayHistogram::max_bucket          159                       # delay histogram for all message (Unspecified)
board.cache_hierarchy.ruby_system.delayHistogram::samples    390012408                       # delay histogram for all message (Unspecified)
board.cache_hierarchy.ruby_system.delayHistogram::mean     0.659867                       # delay histogram for all message (Unspecified)
board.cache_hierarchy.ruby_system.delayHistogram::stdev     2.432894                       # delay histogram for all message (Unspecified)
board.cache_hierarchy.ruby_system.delayHistogram |   388193405     99.53%     99.53% |     1756945      0.45%     99.98% |       58036      0.01%    100.00% |        3822      0.00%    100.00% |         166      0.00%    100.00% |          33      0.00%    100.00% |           1      0.00%    100.00% |           0      0.00%    100.00% |           0      0.00%    100.00% |           0      0.00%    100.00% # delay histogram for all message (Unspecified)
board.cache_hierarchy.ruby_system.delayHistogram::total    390012408                       # delay histogram for all message (Unspecified)
board.cache_hierarchy.ruby_system.m_outstandReqHistSeqr::bucket_size            2                       (Unspecified)
board.cache_hierarchy.ruby_system.m_outstandReqHistSeqr::max_bucket           19                       (Unspecified)
board.cache_hierarchy.ruby_system.m_outstandReqHistSeqr::samples    847345051                       (Unspecified)
board.cache_hierarchy.ruby_system.m_outstandReqHistSeqr::mean     2.227378                       (Unspecified)
board.cache_hierarchy.ruby_system.m_outstandReqHistSeqr::gmean     1.841246                       (Unspecified)
board.cache_hierarchy.ruby_system.m_outstandReqHistSeqr::stdev     1.707153                       (Unspecified)
board.cache_hierarchy.ruby_system.m_outstandReqHistSeqr |   332217111     39.21%     39.21% |   401741481     47.41%     86.62% |    83149787      9.81%     96.43% |    16026778      1.89%     98.32% |     5839634      0.69%     99.01% |     2846021      0.34%     99.35% |     2167633      0.26%     99.60% |     1579963      0.19%     99.79% |     1776643      0.21%    100.00% |           0      0.00%    100.00% (Unspecified)
board.cache_hierarchy.ruby_system.m_outstandReqHistSeqr::total    847345051                       (Unspecified)
board.cache_hierarchy.ruby_system.m_latencyHistSeqr::bucket_size          512                       (Unspecified)
board.cache_hierarchy.ruby_system.m_latencyHistSeqr::max_bucket         5119                       (Unspecified)
board.cache_hierarchy.ruby_system.m_latencyHistSeqr::samples    850995373                       (Unspecified)
board.cache_hierarchy.ruby_system.m_latencyHistSeqr::mean     9.107171                       (Unspecified)
board.cache_hierarchy.ruby_system.m_latencyHistSeqr::gmean     1.414464                       (Unspecified)
board.cache_hierarchy.ruby_system.m_latencyHistSeqr::stdev    41.198358                       (Unspecified)
board.cache_hierarchy.ruby_system.m_latencyHistSeqr |   850442770     99.94%     99.94% |      523785      0.06%    100.00% |       25884      0.00%    100.00% |        2441      0.00%    100.00% |         410      0.00%    100.00% |          72      0.00%    100.00% |          10      0.00%    100.00% |           1      0.00%    100.00% |           0      0.00%    100.00% |           0      0.00%    100.00% (Unspecified)
board.cache_hierarchy.ruby_system.m_latencyHistSeqr::total    850995373                       (Unspecified)
board.cache_hierarchy.ruby_system.m_hitLatencyHistSeqr::bucket_size          256                       (Unspecified)
board.cache_hierarchy.ruby_system.m_hitLatencyHistSeqr::max_bucket         2559                       (Unspecified)
board.cache_hierarchy.ruby_system.m_hitLatencyHistSeqr::samples    773310809                       (Unspecified)
board.cache_hierarchy.ruby_system.m_hitLatencyHistSeqr::mean     1.023301                       (Unspecified)
board.cache_hierarchy.ruby_system.m_hitLatencyHistSeqr::gmean     1.005015                       (Unspecified)
board.cache_hierarchy.ruby_system.m_hitLatencyHistSeqr::stdev     1.848629                       (Unspecified)
board.cache_hierarchy.ruby_system.m_hitLatencyHistSeqr |   773308356    100.00%    100.00% |        1400      0.00%    100.00% |         497      0.00%    100.00% |         519      0.00%    100.00% |          23      0.00%    100.00% |          11      0.00%    100.00% |           2      0.00%    100.00% |           1      0.00%    100.00% |           0      0.00%    100.00% |           0      0.00%    100.00% (Unspecified)
board.cache_hierarchy.ruby_system.m_hitLatencyHistSeqr::total    773310809                       (Unspecified)
board.cache_hierarchy.ruby_system.m_missLatencyHistSeqr::bucket_size          512                       (Unspecified)
board.cache_hierarchy.ruby_system.m_missLatencyHistSeqr::max_bucket         5119                       (Unspecified)
board.cache_hierarchy.ruby_system.m_missLatencyHistSeqr::samples     77684564                       (Unspecified)
board.cache_hierarchy.ruby_system.m_missLatencyHistSeqr::mean    89.578030                       (Unspecified)
board.cache_hierarchy.ruby_system.m_missLatencyHistSeqr::gmean    42.465328                       (Unspecified)
board.cache_hierarchy.ruby_system.m_missLatencyHistSeqr::stdev   106.925332                       (Unspecified)
board.cache_hierarchy.ruby_system.m_missLatencyHistSeqr |    77133014     99.29%     99.29% |      522769      0.67%     99.96% |       25850      0.03%    100.00% |        2438      0.00%    100.00% |         410      0.00%    100.00% |          72      0.00%    100.00% |          10      0.00%    100.00% |           1      0.00%    100.00% |           0      0.00%    100.00% |           0      0.00%    100.00% (Unspecified)
board.cache_hierarchy.ruby_system.m_missLatencyHistSeqr::total     77684564                       (Unspecified)
board.cache_hierarchy.ruby_system.delayVCHist.vnet_0::bucket_size           16                       # delay histogram for vnet_0 (Unspecified)
board.cache_hierarchy.ruby_system.delayVCHist.vnet_0::max_bucket          159                       # delay histogram for vnet_0 (Unspecified)
board.cache_hierarchy.ruby_system.delayVCHist.vnet_0::samples    162170661                       # delay histogram for vnet_0 (Unspecified)
board.cache_hierarchy.ruby_system.delayVCHist.vnet_0::mean     0.969838                       # delay histogram for vnet_0 (Unspecified)
board.cache_hierarchy.ruby_system.delayVCHist.vnet_0::stdev     2.829062                       # delay histogram for vnet_0 (Unspecified)
board.cache_hierarchy.ruby_system.delayVCHist.vnet_0 |   161349587     99.49%     99.49% |      808221      0.50%     99.99% |       12475      0.01%    100.00% |         342      0.00%    100.00% |          29      0.00%    100.00% |           6      0.00%    100.00% |           1      0.00%    100.00% |           0      0.00%    100.00% |           0      0.00%    100.00% |           0      0.00%    100.00% # delay histogram for vnet_0 (Unspecified)
board.cache_hierarchy.ruby_system.delayVCHist.vnet_0::total    162170661                       # delay histogram for vnet_0 (Unspecified)
board.cache_hierarchy.ruby_system.delayVCHist.vnet_1::bucket_size           16                       # delay histogram for vnet_1 (Unspecified)
board.cache_hierarchy.ruby_system.delayVCHist.vnet_1::max_bucket          159                       # delay histogram for vnet_1 (Unspecified)
board.cache_hierarchy.ruby_system.delayVCHist.vnet_1::samples    207467973                       # delay histogram for vnet_1 (Unspecified)
board.cache_hierarchy.ruby_system.delayVCHist.vnet_1::mean     0.482297                       # delay histogram for vnet_1 (Unspecified)
board.cache_hierarchy.ruby_system.delayVCHist.vnet_1::stdev     2.172857                       # delay histogram for vnet_1 (Unspecified)
board.cache_hierarchy.ruby_system.delayVCHist.vnet_1 |   206470044     99.52%     99.52% |      948724      0.46%     99.98% |       45561      0.02%    100.00% |        3480      0.00%    100.00% |         137      0.00%    100.00% |          27      0.00%    100.00% |           0      0.00%    100.00% |           0      0.00%    100.00% |           0      0.00%    100.00% |           0      0.00%    100.00% # delay histogram for vnet_1 (Unspecified)
board.cache_hierarchy.ruby_system.delayVCHist.vnet_1::total    207467973                       # delay histogram for vnet_1 (Unspecified)
board.cache_hierarchy.ruby_system.delayVCHist.vnet_2::bucket_size            1                       # delay histogram for vnet_2 (Unspecified)
board.cache_hierarchy.ruby_system.delayVCHist.vnet_2::max_bucket            9                       # delay histogram for vnet_2 (Unspecified)
board.cache_hierarchy.ruby_system.delayVCHist.vnet_2::samples     20373774                       # delay histogram for vnet_2 (Unspecified)
board.cache_hierarchy.ruby_system.delayVCHist.vnet_2::mean     0.000780                       # delay histogram for vnet_2 (Unspecified)
board.cache_hierarchy.ruby_system.delayVCHist.vnet_2::stdev     0.039477                       # delay histogram for vnet_2 (Unspecified)
board.cache_hierarchy.ruby_system.delayVCHist.vnet_2 |    20365833     99.96%     99.96% |           0      0.00%     99.96% |        7941      0.04%    100.00% |           0      0.00%    100.00% |           0      0.00%    100.00% |           0      0.00%    100.00% |           0      0.00%    100.00% |           0      0.00%    100.00% |           0      0.00%    100.00% |           0      0.00%    100.00% # delay histogram for vnet_2 (Unspecified)
board.cache_hierarchy.ruby_system.delayVCHist.vnet_2::total     20373774                       # delay histogram for vnet_2 (Unspecified)
board.cache_hierarchy.ruby_system.Directory_Controller.Fetch     33553646      0.00%      0.00% (Unspecified)
board.cache_hierarchy.ruby_system.Directory_Controller.Data      5621916      0.00%      0.00% (Unspecified)
board.cache_hierarchy.ruby_system.Directory_Controller.Memory_Data     33716406      0.00%      0.00% (Unspecified)
board.cache_hierarchy.ruby_system.Directory_Controller.Memory_Ack      6095382      0.00%      0.00% (Unspecified)
board.cache_hierarchy.ruby_system.Directory_Controller.DMA_READ       224276      0.00%      0.00% (Unspecified)
board.cache_hierarchy.ruby_system.Directory_Controller.DMA_WRITE       473472      0.00%      0.00% (Unspecified)
board.cache_hierarchy.ruby_system.Directory_Controller.CleanReplacement     27927634      0.00%      0.00% (Unspecified)
board.cache_hierarchy.ruby_system.Directory_Controller.I.Fetch     33553646      0.00%      0.00% (Unspecified)
board.cache_hierarchy.ruby_system.Directory_Controller.I.DMA_READ       162761      0.00%      0.00% (Unspecified)
board.cache_hierarchy.ruby_system.Directory_Controller.I.DMA_WRITE       473466      0.00%      0.00% (Unspecified)
board.cache_hierarchy.ruby_system.Directory_Controller.ID.Memory_Data       162761      0.00%      0.00% (Unspecified)
board.cache_hierarchy.ruby_system.Directory_Controller.ID_W.Memory_Ack       473466      0.00%      0.00% (Unspecified)
board.cache_hierarchy.ruby_system.Directory_Controller.M.Data      5560633      0.00%      0.00% (Unspecified)
board.cache_hierarchy.ruby_system.Directory_Controller.M.DMA_READ        61277      0.00%      0.00% (Unspecified)
board.cache_hierarchy.ruby_system.Directory_Controller.M.DMA_WRITE            6      0.00%      0.00% (Unspecified)
board.cache_hierarchy.ruby_system.Directory_Controller.M.CleanReplacement     27927634      0.00%      0.00% (Unspecified)
board.cache_hierarchy.ruby_system.Directory_Controller.IM.Memory_Data     33553645      0.00%      0.00% (Unspecified)
board.cache_hierarchy.ruby_system.Directory_Controller.MI.Memory_Ack      5560633      0.00%      0.00% (Unspecified)
board.cache_hierarchy.ruby_system.Directory_Controller.MI.DMA_READ          238      0.00%      0.00% (Unspecified)
board.cache_hierarchy.ruby_system.Directory_Controller.M_DRD.Data        61277      0.00%      0.00% (Unspecified)
board.cache_hierarchy.ruby_system.Directory_Controller.M_DRDI.Memory_Ack        61277      0.00%      0.00% (Unspecified)
board.cache_hierarchy.ruby_system.Directory_Controller.M_DWR.Data            6      0.00%      0.00% (Unspecified)
board.cache_hierarchy.ruby_system.Directory_Controller.M_DWRI.Memory_Ack            6      0.00%      0.00% (Unspecified)
board.cache_hierarchy.ruby_system.DMA_Controller.ReadRequest |      224038    100.00%    100.00% |           0      0.00%    100.00% (Unspecified)
board.cache_hierarchy.ruby_system.DMA_Controller.ReadRequest::total       224038                       (Unspecified)
board.cache_hierarchy.ruby_system.DMA_Controller.WriteRequest |      473472    100.00%    100.00% |           0      0.00%    100.00% (Unspecified)
board.cache_hierarchy.ruby_system.DMA_Controller.WriteRequest::total       473472                       (Unspecified)
board.cache_hierarchy.ruby_system.DMA_Controller.Data |      224038    100.00%    100.00% |           0      0.00%    100.00% (Unspecified)
board.cache_hierarchy.ruby_system.DMA_Controller.Data::total       224038                       (Unspecified)
board.cache_hierarchy.ruby_system.DMA_Controller.Ack |      473472    100.00%    100.00% |           0      0.00%    100.00% (Unspecified)
board.cache_hierarchy.ruby_system.DMA_Controller.Ack::total       473472                       (Unspecified)
board.cache_hierarchy.ruby_system.DMA_Controller.READY.ReadRequest |      224038    100.00%    100.00% |           0      0.00%    100.00% (Unspecified)
board.cache_hierarchy.ruby_system.DMA_Controller.READY.ReadRequest::total       224038                       (Unspecified)
board.cache_hierarchy.ruby_system.DMA_Controller.READY.WriteRequest |      473472    100.00%    100.00% |           0      0.00%    100.00% (Unspecified)
board.cache_hierarchy.ruby_system.DMA_Controller.READY.WriteRequest::total       473472                       (Unspecified)
board.cache_hierarchy.ruby_system.DMA_Controller.BUSY_RD.Data |      224038    100.00%    100.00% |           0      0.00%    100.00% (Unspecified)
board.cache_hierarchy.ruby_system.DMA_Controller.BUSY_RD.Data::total       224038                       (Unspecified)
board.cache_hierarchy.ruby_system.DMA_Controller.BUSY_WR.Ack |      473472    100.00%    100.00% |           0      0.00%    100.00% (Unspecified)
board.cache_hierarchy.ruby_system.DMA_Controller.BUSY_WR.Ack::total       473472                       (Unspecified)
board.cache_hierarchy.ruby_system.L1Cache_Controller.Load    364867971      0.00%      0.00% (Unspecified)
board.cache_hierarchy.ruby_system.L1Cache_Controller.Ifetch    261338806      0.00%      0.00% (Unspecified)
board.cache_hierarchy.ruby_system.L1Cache_Controller.Store    225379893      0.00%      0.00% (Unspecified)
board.cache_hierarchy.ruby_system.L1Cache_Controller.Inv     20373774      0.00%      0.00% (Unspecified)
board.cache_hierarchy.ruby_system.L1Cache_Controller.L1_Replacement     77582061      0.00%      0.00% (Unspecified)
board.cache_hierarchy.ruby_system.L1Cache_Controller.Data_Exclusive     33744169      0.00%      0.00% (Unspecified)
board.cache_hierarchy.ruby_system.L1Cache_Controller.Data_all_Acks     43951127      0.00%      0.00% (Unspecified)
board.cache_hierarchy.ruby_system.L1Cache_Controller.Ack_all           31      0.00%      0.00% (Unspecified)
board.cache_hierarchy.ruby_system.L1Cache_Controller.WB_Ack     42234394      0.00%      0.00% (Unspecified)
board.cache_hierarchy.ruby_system.L1Cache_Controller.NP.Load     33750875      0.00%      0.00% (Unspecified)
board.cache_hierarchy.ruby_system.L1Cache_Controller.NP.Ifetch     35334065      0.00%      0.00% (Unspecified)
board.cache_hierarchy.ruby_system.L1Cache_Controller.NP.Store      8496550      0.00%      0.00% (Unspecified)
board.cache_hierarchy.ruby_system.L1Cache_Controller.NP.Inv     20138119      0.00%      0.00% (Unspecified)
board.cache_hierarchy.ruby_system.L1Cache_Controller.I.Load         1761      0.00%      0.00% (Unspecified)
board.cache_hierarchy.ruby_system.L1Cache_Controller.I.Ifetch       111856      0.00%      0.00% (Unspecified)
board.cache_hierarchy.ruby_system.L1Cache_Controller.I.Store          190      0.00%      0.00% (Unspecified)
board.cache_hierarchy.ruby_system.L1Cache_Controller.I.L1_Replacement       121838      0.00%      0.00% (Unspecified)
board.cache_hierarchy.ruby_system.L1Cache_Controller.S.Load         8363      0.00%      0.00% (Unspecified)
board.cache_hierarchy.ruby_system.L1Cache_Controller.S.Ifetch    225892767      0.00%      0.00% (Unspecified)
board.cache_hierarchy.ruby_system.L1Cache_Controller.S.Store           31      0.00%      0.00% (Unspecified)
board.cache_hierarchy.ruby_system.L1Cache_Controller.S.Inv       227876      0.00%      0.00% (Unspecified)
board.cache_hierarchy.ruby_system.L1Cache_Controller.S.L1_Replacement     35224618      0.00%      0.00% (Unspecified)
board.cache_hierarchy.ruby_system.L1Cache_Controller.E.Load    183963286      0.00%      0.00% (Unspecified)
board.cache_hierarchy.ruby_system.L1Cache_Controller.E.Store      4612168      0.00%      0.00% (Unspecified)
board.cache_hierarchy.ruby_system.L1Cache_Controller.E.Inv         1667      0.00%      0.00% (Unspecified)
board.cache_hierarchy.ruby_system.L1Cache_Controller.E.L1_Replacement     29130288      0.00%      0.00% (Unspecified)
board.cache_hierarchy.ruby_system.L1Cache_Controller.M.Load    147083990      0.00%      0.00% (Unspecified)
board.cache_hierarchy.ruby_system.L1Cache_Controller.M.Store    212260947      0.00%      0.00% (Unspecified)
board.cache_hierarchy.ruby_system.L1Cache_Controller.M.Inv         4751      0.00%      0.00% (Unspecified)
board.cache_hierarchy.ruby_system.L1Cache_Controller.M.L1_Replacement     13104106      0.00%      0.00% (Unspecified)
board.cache_hierarchy.ruby_system.L1Cache_Controller.IS.Inv         1357      0.00%      0.00% (Unspecified)
board.cache_hierarchy.ruby_system.L1Cache_Controller.IS.L1_Replacement         1134      0.00%      0.00% (Unspecified)
board.cache_hierarchy.ruby_system.L1Cache_Controller.IS.Data_Exclusive     33744169      0.00%      0.00% (Unspecified)
board.cache_hierarchy.ruby_system.L1Cache_Controller.IS.Data_all_Acks     35453031      0.00%      0.00% (Unspecified)
board.cache_hierarchy.ruby_system.L1Cache_Controller.IM.L1_Replacement           77      0.00%      0.00% (Unspecified)
board.cache_hierarchy.ruby_system.L1Cache_Controller.IM.Data_all_Acks      8496739      0.00%      0.00% (Unspecified)
board.cache_hierarchy.ruby_system.L1Cache_Controller.SM.Ack_all           31      0.00%      0.00% (Unspecified)
board.cache_hierarchy.ruby_system.L1Cache_Controller.IS_I.Data_all_Acks         1357      0.00%      0.00% (Unspecified)
board.cache_hierarchy.ruby_system.L1Cache_Controller.M_I.Load        59696      0.00%      0.00% (Unspecified)
board.cache_hierarchy.ruby_system.L1Cache_Controller.M_I.Ifetch          118      0.00%      0.00% (Unspecified)
board.cache_hierarchy.ruby_system.L1Cache_Controller.M_I.Store        10007      0.00%      0.00% (Unspecified)
board.cache_hierarchy.ruby_system.L1Cache_Controller.M_I.Inv            4      0.00%      0.00% (Unspecified)
board.cache_hierarchy.ruby_system.L1Cache_Controller.M_I.WB_Ack     42234390      0.00%      0.00% (Unspecified)
board.cache_hierarchy.ruby_system.L1Cache_Controller.SINK_WB_ACK.WB_Ack            4      0.00%      0.00% (Unspecified)
board.cache_hierarchy.ruby_system.L2Cache_Controller.L1_GET_INSTR     35447699      0.00%      0.00% (Unspecified)
board.cache_hierarchy.ruby_system.L2Cache_Controller.L1_GETS     33753044      0.00%      0.00% (Unspecified)
board.cache_hierarchy.ruby_system.L2Cache_Controller.L1_GETX      8496823      0.00%      0.00% (Unspecified)
board.cache_hierarchy.ruby_system.L2Cache_Controller.L1_UPGRADE           31      0.00%      0.00% (Unspecified)
board.cache_hierarchy.ruby_system.L2Cache_Controller.L1_PUTX     42234390      0.00%      0.00% (Unspecified)
board.cache_hierarchy.ruby_system.L2Cache_Controller.L1_PUTX_old            8      0.00%      0.00% (Unspecified)
board.cache_hierarchy.ruby_system.L2Cache_Controller.L2_Replacement      5560183      0.00%      0.00% (Unspecified)
board.cache_hierarchy.ruby_system.L2Cache_Controller.L2_Replacement_clean     27928085      0.00%      0.00% (Unspecified)
board.cache_hierarchy.ruby_system.L2Cache_Controller.Mem_Data     33553645      0.00%      0.00% (Unspecified)
board.cache_hierarchy.ruby_system.L2Cache_Controller.Mem_Ack     33549550      0.00%      0.00% (Unspecified)
board.cache_hierarchy.ruby_system.L2Cache_Controller.WB_Data         4754      0.00%      0.00% (Unspecified)
board.cache_hierarchy.ruby_system.L2Cache_Controller.WB_Data_clean            1      0.00%      0.00% (Unspecified)
board.cache_hierarchy.ruby_system.L2Cache_Controller.Ack_all     20369019      0.00%      0.00% (Unspecified)
board.cache_hierarchy.ruby_system.L2Cache_Controller.Exclusive_Unblock     42240939      0.00%      0.00% (Unspecified)
board.cache_hierarchy.ruby_system.L2Cache_Controller.MEM_Inv       122565      0.00%      0.00% (Unspecified)
board.cache_hierarchy.ruby_system.L2Cache_Controller.NP.L1_GET_INSTR     20368175      0.00%      0.00% (Unspecified)
board.cache_hierarchy.ruby_system.L2Cache_Controller.NP.L1_GETS      8953727      0.00%      0.00% (Unspecified)
board.cache_hierarchy.ruby_system.L2Cache_Controller.NP.L1_GETX      4231744      0.00%      0.00% (Unspecified)
board.cache_hierarchy.ruby_system.L2Cache_Controller.NP.L1_PUTX_old            4      0.00%      0.00% (Unspecified)
board.cache_hierarchy.ruby_system.L2Cache_Controller.SS.L1_GET_INSTR     15077270      0.00%      0.00% (Unspecified)
board.cache_hierarchy.ruby_system.L2Cache_Controller.SS.L1_GETS         8467      0.00%      0.00% (Unspecified)
board.cache_hierarchy.ruby_system.L2Cache_Controller.SS.L1_GETX            9      0.00%      0.00% (Unspecified)
board.cache_hierarchy.ruby_system.L2Cache_Controller.SS.L1_UPGRADE           31      0.00%      0.00% (Unspecified)
board.cache_hierarchy.ruby_system.L2Cache_Controller.SS.L2_Replacement          105      0.00%      0.00% (Unspecified)
board.cache_hierarchy.ruby_system.L2Cache_Controller.SS.L2_Replacement_clean     20367247      0.00%      0.00% (Unspecified)
board.cache_hierarchy.ruby_system.L2Cache_Controller.M.L1_GET_INSTR          476      0.00%      0.00% (Unspecified)
board.cache_hierarchy.ruby_system.L2Cache_Controller.M.L1_GETS     24790442      0.00%      0.00% (Unspecified)
board.cache_hierarchy.ruby_system.L2Cache_Controller.M.L1_GETX      4264987      0.00%      0.00% (Unspecified)
board.cache_hierarchy.ruby_system.L2Cache_Controller.M.L2_Replacement      5558662      0.00%      0.00% (Unspecified)
board.cache_hierarchy.ruby_system.L2Cache_Controller.M.L2_Replacement_clean      7559055      0.00%      0.00% (Unspecified)
board.cache_hierarchy.ruby_system.L2Cache_Controller.M.MEM_Inv        58059      0.00%      0.00% (Unspecified)
board.cache_hierarchy.ruby_system.L2Cache_Controller.MT.L1_PUTX     42234390      0.00%      0.00% (Unspecified)
board.cache_hierarchy.ruby_system.L2Cache_Controller.MT.L2_Replacement         1416      0.00%      0.00% (Unspecified)
board.cache_hierarchy.ruby_system.L2Cache_Controller.MT.L2_Replacement_clean         1783      0.00%      0.00% (Unspecified)
board.cache_hierarchy.ruby_system.L2Cache_Controller.MT.MEM_Inv         3223      0.00%      0.00% (Unspecified)
board.cache_hierarchy.ruby_system.L2Cache_Controller.M_I.L1_GET_INSTR          426      0.00%      0.00% (Unspecified)
board.cache_hierarchy.ruby_system.L2Cache_Controller.M_I.L1_GETS          408      0.00%      0.00% (Unspecified)
board.cache_hierarchy.ruby_system.L2Cache_Controller.M_I.L1_GETX           83      0.00%      0.00% (Unspecified)
board.cache_hierarchy.ruby_system.L2Cache_Controller.M_I.Mem_Ack     33549550      0.00%      0.00% (Unspecified)
board.cache_hierarchy.ruby_system.L2Cache_Controller.M_I.MEM_Inv        58060      0.00%      0.00% (Unspecified)
board.cache_hierarchy.ruby_system.L2Cache_Controller.MT_I.L1_PUTX_old            3      0.00%      0.00% (Unspecified)
board.cache_hierarchy.ruby_system.L2Cache_Controller.MT_I.WB_Data         4303      0.00%      0.00% (Unspecified)
board.cache_hierarchy.ruby_system.L2Cache_Controller.MT_I.Ack_all          336      0.00%      0.00% (Unspecified)
board.cache_hierarchy.ruby_system.L2Cache_Controller.MT_I.MEM_Inv         3223      0.00%      0.00% (Unspecified)
board.cache_hierarchy.ruby_system.L2Cache_Controller.MCT_I.L1_PUTX_old            1      0.00%      0.00% (Unspecified)
board.cache_hierarchy.ruby_system.L2Cache_Controller.MCT_I.WB_Data          451      0.00%      0.00% (Unspecified)
board.cache_hierarchy.ruby_system.L2Cache_Controller.MCT_I.WB_Data_clean            1      0.00%      0.00% (Unspecified)
board.cache_hierarchy.ruby_system.L2Cache_Controller.MCT_I.Ack_all         1331      0.00%      0.00% (Unspecified)
board.cache_hierarchy.ruby_system.L2Cache_Controller.I_I.L1_GET_INSTR         1352      0.00%      0.00% (Unspecified)
board.cache_hierarchy.ruby_system.L2Cache_Controller.I_I.Ack_all     20367247      0.00%      0.00% (Unspecified)
board.cache_hierarchy.ruby_system.L2Cache_Controller.S_I.Ack_all          105      0.00%      0.00% (Unspecified)
board.cache_hierarchy.ruby_system.L2Cache_Controller.ISS.Mem_Data      8953727      0.00%      0.00% (Unspecified)
board.cache_hierarchy.ruby_system.L2Cache_Controller.IS.Mem_Data     20368175      0.00%      0.00% (Unspecified)
board.cache_hierarchy.ruby_system.L2Cache_Controller.IM.Mem_Data      4231743      0.00%      0.00% (Unspecified)
board.cache_hierarchy.ruby_system.L2Cache_Controller.SS_MB.Exclusive_Unblock           40      0.00%      0.00% (Unspecified)
board.cache_hierarchy.ruby_system.L2Cache_Controller.MT_MB.Exclusive_Unblock     42240899      0.00%      0.00% (Unspecified)
board.cache_hierarchy.ruby_system.RequestType.LD.latency_hist_seqr::bucket_size          512                       (Unspecified)
board.cache_hierarchy.ruby_system.RequestType.LD.latency_hist_seqr::max_bucket         5119                       (Unspecified)
board.cache_hierarchy.ruby_system.RequestType.LD.latency_hist_seqr::samples    364631052                       (Unspecified)
board.cache_hierarchy.ruby_system.RequestType.LD.latency_hist_seqr::mean     7.071025                       (Unspecified)
board.cache_hierarchy.ruby_system.RequestType.LD.latency_hist_seqr::gmean     1.369550                       (Unspecified)
board.cache_hierarchy.ruby_system.RequestType.LD.latency_hist_seqr::stdev    35.811547                       (Unspecified)
board.cache_hierarchy.ruby_system.RequestType.LD.latency_hist_seqr |   364464543     99.95%     99.95% |      155501      0.04%    100.00% |       10148      0.00%    100.00% |         673      0.00%    100.00% |         142      0.00%    100.00% |          38      0.00%    100.00% |           6      0.00%    100.00% |           1      0.00%    100.00% |           0      0.00%    100.00% |           0      0.00%    100.00% (Unspecified)
board.cache_hierarchy.ruby_system.RequestType.LD.latency_hist_seqr::total    364631052                       (Unspecified)
board.cache_hierarchy.ruby_system.RequestType.LD.hit_latency_hist_seqr::bucket_size            1                       (Unspecified)
board.cache_hierarchy.ruby_system.RequestType.LD.hit_latency_hist_seqr::max_bucket            9                       (Unspecified)
board.cache_hierarchy.ruby_system.RequestType.LD.hit_latency_hist_seqr::samples    330882716                       (Unspecified)
board.cache_hierarchy.ruby_system.RequestType.LD.hit_latency_hist_seqr::mean     1.001392                       (Unspecified)
board.cache_hierarchy.ruby_system.RequestType.LD.hit_latency_hist_seqr::gmean     1.000964                       (Unspecified)
board.cache_hierarchy.ruby_system.RequestType.LD.hit_latency_hist_seqr::stdev     0.037365                       (Unspecified)
board.cache_hierarchy.ruby_system.RequestType.LD.hit_latency_hist_seqr |           0      0.00%      0.00% |   330423211     99.86%     99.86% |      458526      0.14%    100.00% |         947      0.00%    100.00% |          32      0.00%    100.00% |           0      0.00%    100.00% |           0      0.00%    100.00% |           0      0.00%    100.00% |           0      0.00%    100.00% |           0      0.00%    100.00% (Unspecified)
board.cache_hierarchy.ruby_system.RequestType.LD.hit_latency_hist_seqr::total    330882716                       (Unspecified)
board.cache_hierarchy.ruby_system.RequestType.LD.miss_latency_hist_seqr::bucket_size          512                       (Unspecified)
board.cache_hierarchy.ruby_system.RequestType.LD.miss_latency_hist_seqr::max_bucket         5119                       (Unspecified)
board.cache_hierarchy.ruby_system.RequestType.LD.miss_latency_hist_seqr::samples     33748336                       (Unspecified)
board.cache_hierarchy.ruby_system.RequestType.LD.miss_latency_hist_seqr::mean    66.580238                       (Unspecified)
board.cache_hierarchy.ruby_system.RequestType.LD.miss_latency_hist_seqr::gmean    29.617070                       (Unspecified)
board.cache_hierarchy.ruby_system.RequestType.LD.miss_latency_hist_seqr::stdev    99.768464                       (Unspecified)
board.cache_hierarchy.ruby_system.RequestType.LD.miss_latency_hist_seqr |    33581827     99.51%     99.51% |      155501      0.46%     99.97% |       10148      0.03%    100.00% |         673      0.00%    100.00% |         142      0.00%    100.00% |          38      0.00%    100.00% |           6      0.00%    100.00% |           1      0.00%    100.00% |           0      0.00%    100.00% |           0      0.00%    100.00% (Unspecified)
board.cache_hierarchy.ruby_system.RequestType.LD.miss_latency_hist_seqr::total     33748336                       (Unspecified)
board.cache_hierarchy.ruby_system.RequestType.ST.latency_hist_seqr::bucket_size          512                       (Unspecified)
board.cache_hierarchy.ruby_system.RequestType.ST.latency_hist_seqr::max_bucket         5119                       (Unspecified)
board.cache_hierarchy.ruby_system.RequestType.ST.latency_hist_seqr::samples    217882427                       (Unspecified)
board.cache_hierarchy.ruby_system.RequestType.ST.latency_hist_seqr::mean     4.409039                       (Unspecified)
board.cache_hierarchy.ruby_system.RequestType.ST.latency_hist_seqr::gmean     1.160317                       (Unspecified)
board.cache_hierarchy.ruby_system.RequestType.ST.latency_hist_seqr::stdev    26.675531                       (Unspecified)
board.cache_hierarchy.ruby_system.RequestType.ST.latency_hist_seqr |   217813916     99.97%     99.97% |       65784      0.03%    100.00% |        2404      0.00%    100.00% |         284      0.00%    100.00% |          38      0.00%    100.00% |           0      0.00%    100.00% |           1      0.00%    100.00% |           0      0.00%    100.00% |           0      0.00%    100.00% |           0      0.00%    100.00% (Unspecified)
board.cache_hierarchy.ruby_system.RequestType.ST.latency_hist_seqr::total    217882427                       (Unspecified)
board.cache_hierarchy.ruby_system.RequestType.ST.hit_latency_hist_seqr::bucket_size          256                       (Unspecified)
board.cache_hierarchy.ruby_system.RequestType.ST.hit_latency_hist_seqr::max_bucket         2559                       (Unspecified)
board.cache_hierarchy.ruby_system.RequestType.ST.hit_latency_hist_seqr::samples    210350982                       (Unspecified)
board.cache_hierarchy.ruby_system.RequestType.ST.hit_latency_hist_seqr::mean     1.033509                       (Unspecified)
board.cache_hierarchy.ruby_system.RequestType.ST.hit_latency_hist_seqr::gmean     1.012705                       (Unspecified)
board.cache_hierarchy.ruby_system.RequestType.ST.hit_latency_hist_seqr::stdev     1.788790                       (Unspecified)
board.cache_hierarchy.ruby_system.RequestType.ST.hit_latency_hist_seqr |   210350124    100.00%    100.00% |         567      0.00%    100.00% |         119      0.00%    100.00% |         159      0.00%    100.00% |           9      0.00%    100.00% |           4      0.00%    100.00% |           0      0.00%    100.00% |           0      0.00%    100.00% |           0      0.00%    100.00% |           0      0.00%    100.00% (Unspecified)
board.cache_hierarchy.ruby_system.RequestType.ST.hit_latency_hist_seqr::total    210350982                       (Unspecified)
board.cache_hierarchy.ruby_system.RequestType.ST.miss_latency_hist_seqr::bucket_size          512                       (Unspecified)
board.cache_hierarchy.ruby_system.RequestType.ST.miss_latency_hist_seqr::max_bucket         5119                       (Unspecified)
board.cache_hierarchy.ruby_system.RequestType.ST.miss_latency_hist_seqr::samples      7531445                       (Unspecified)
board.cache_hierarchy.ruby_system.RequestType.ST.miss_latency_hist_seqr::mean    98.686585                       (Unspecified)
board.cache_hierarchy.ruby_system.RequestType.ST.miss_latency_hist_seqr::gmean    51.884916                       (Unspecified)
board.cache_hierarchy.ruby_system.RequestType.ST.miss_latency_hist_seqr::stdev   106.254647                       (Unspecified)
board.cache_hierarchy.ruby_system.RequestType.ST.miss_latency_hist_seqr |     7463225     99.09%     99.09% |       65506      0.87%     99.96% |        2391      0.03%    100.00% |         284      0.00%    100.00% |          38      0.00%    100.00% |           0      0.00%    100.00% |           1      0.00%    100.00% |           0      0.00%    100.00% |           0      0.00%    100.00% |           0      0.00%    100.00% (Unspecified)
board.cache_hierarchy.ruby_system.RequestType.ST.miss_latency_hist_seqr::total      7531445                       (Unspecified)
board.cache_hierarchy.ruby_system.RequestType.IFETCH.latency_hist_seqr::bucket_size          512                       (Unspecified)
board.cache_hierarchy.ruby_system.RequestType.IFETCH.latency_hist_seqr::max_bucket         5119                       (Unspecified)
board.cache_hierarchy.ruby_system.RequestType.IFETCH.latency_hist_seqr::samples    261147789                       (Unspecified)
board.cache_hierarchy.ruby_system.RequestType.IFETCH.latency_hist_seqr::mean    15.778467                       (Unspecified)
board.cache_hierarchy.ruby_system.RequestType.IFETCH.latency_hist_seqr::gmean     1.733825                       (Unspecified)
board.cache_hierarchy.ruby_system.RequestType.IFETCH.latency_hist_seqr::stdev    54.867409                       (Unspecified)
board.cache_hierarchy.ruby_system.RequestType.IFETCH.latency_hist_seqr |   260837262     99.88%     99.88% |      295839      0.11%     99.99% |       12973      0.00%    100.00% |        1457      0.00%    100.00% |         225      0.00%    100.00% |          30      0.00%    100.00% |           3      0.00%    100.00% |           0      0.00%    100.00% |           0      0.00%    100.00% |           0      0.00%    100.00% (Unspecified)
board.cache_hierarchy.ruby_system.RequestType.IFETCH.latency_hist_seqr::total    261147789                       (Unspecified)
board.cache_hierarchy.ruby_system.RequestType.IFETCH.hit_latency_hist_seqr::bucket_size            1                       (Unspecified)
board.cache_hierarchy.ruby_system.RequestType.IFETCH.hit_latency_hist_seqr::max_bucket            9                       (Unspecified)
board.cache_hierarchy.ruby_system.RequestType.IFETCH.hit_latency_hist_seqr::samples    225707175                       (Unspecified)
board.cache_hierarchy.ruby_system.RequestType.IFETCH.hit_latency_hist_seqr::mean     1.000023                       (Unspecified)
board.cache_hierarchy.ruby_system.RequestType.IFETCH.hit_latency_hist_seqr::gmean     1.000015                       (Unspecified)
board.cache_hierarchy.ruby_system.RequestType.IFETCH.hit_latency_hist_seqr::stdev     0.005579                       (Unspecified)
board.cache_hierarchy.ruby_system.RequestType.IFETCH.hit_latency_hist_seqr |           0      0.00%      0.00% |   225702909    100.00%    100.00% |        3351      0.00%    100.00% |         912      0.00%    100.00% |           3      0.00%    100.00% |           0      0.00%    100.00% |           0      0.00%    100.00% |           0      0.00%    100.00% |           0      0.00%    100.00% |           0      0.00%    100.00% (Unspecified)
board.cache_hierarchy.ruby_system.RequestType.IFETCH.hit_latency_hist_seqr::total    225707175                       (Unspecified)
board.cache_hierarchy.ruby_system.RequestType.IFETCH.miss_latency_hist_seqr::bucket_size          512                       (Unspecified)
board.cache_hierarchy.ruby_system.RequestType.IFETCH.miss_latency_hist_seqr::max_bucket         5119                       (Unspecified)
board.cache_hierarchy.ruby_system.RequestType.IFETCH.miss_latency_hist_seqr::samples     35440614                       (Unspecified)
board.cache_hierarchy.ruby_system.RequestType.IFETCH.miss_latency_hist_seqr::mean   109.896496                       (Unspecified)
board.cache_hierarchy.ruby_system.RequestType.IFETCH.miss_latency_hist_seqr::gmean    57.689216                       (Unspecified)
board.cache_hierarchy.ruby_system.RequestType.IFETCH.miss_latency_hist_seqr::stdev   109.240830                       (Unspecified)
board.cache_hierarchy.ruby_system.RequestType.IFETCH.miss_latency_hist_seqr |    35130087     99.12%     99.12% |      295839      0.83%     99.96% |       12973      0.04%    100.00% |        1457      0.00%    100.00% |         225      0.00%    100.00% |          30      0.00%    100.00% |           3      0.00%    100.00% |           0      0.00%    100.00% |           0      0.00%    100.00% |           0      0.00%    100.00% (Unspecified)
board.cache_hierarchy.ruby_system.RequestType.IFETCH.miss_latency_hist_seqr::total     35440614                       (Unspecified)
board.cache_hierarchy.ruby_system.RequestType.RMW_Read.latency_hist_seqr::bucket_size          512                       (Unspecified)
board.cache_hierarchy.ruby_system.RequestType.RMW_Read.latency_hist_seqr::max_bucket         5119                       (Unspecified)
board.cache_hierarchy.ruby_system.RequestType.RMW_Read.latency_hist_seqr::samples      5786421                       (Unspecified)
board.cache_hierarchy.ruby_system.RequestType.RMW_Read.latency_hist_seqr::mean    13.894194                       (Unspecified)
board.cache_hierarchy.ruby_system.RequestType.RMW_Read.latency_hist_seqr::gmean     1.996073                       (Unspecified)
board.cache_hierarchy.ruby_system.RequestType.RMW_Read.latency_hist_seqr::stdev    51.515428                       (Unspecified)
board.cache_hierarchy.ruby_system.RequestType.RMW_Read.latency_hist_seqr |     5780760     99.90%     99.90% |        5295      0.09%     99.99% |         331      0.01%    100.00% |          26      0.00%    100.00% |           5      0.00%    100.00% |           4      0.00%    100.00% |           0      0.00%    100.00% |           0      0.00%    100.00% |           0      0.00%    100.00% |           0      0.00%    100.00% (Unspecified)
board.cache_hierarchy.ruby_system.RequestType.RMW_Read.latency_hist_seqr::total      5786421                       (Unspecified)
board.cache_hierarchy.ruby_system.RequestType.RMW_Read.hit_latency_hist_seqr::bucket_size          256                       (Unspecified)
board.cache_hierarchy.ruby_system.RequestType.RMW_Read.hit_latency_hist_seqr::max_bucket         2559                       (Unspecified)
board.cache_hierarchy.ruby_system.RequestType.RMW_Read.hit_latency_hist_seqr::samples      4890722                       (Unspecified)
board.cache_hierarchy.ruby_system.RequestType.RMW_Read.hit_latency_hist_seqr::mean     3.121606                       (Unspecified)
board.cache_hierarchy.ruby_system.RequestType.RMW_Read.hit_latency_hist_seqr::gmean     1.198625                       (Unspecified)
board.cache_hierarchy.ruby_system.RequestType.RMW_Read.hit_latency_hist_seqr::stdev    19.814321                       (Unspecified)
board.cache_hierarchy.ruby_system.RequestType.RMW_Read.hit_latency_hist_seqr |     4889159     99.97%     99.97% |         813      0.02%     99.98% |         372      0.01%     99.99% |         354      0.01%    100.00% |          14      0.00%    100.00% |           7      0.00%    100.00% |           2      0.00%    100.00% |           1      0.00%    100.00% |           0      0.00%    100.00% |           0      0.00%    100.00% (Unspecified)
board.cache_hierarchy.ruby_system.RequestType.RMW_Read.hit_latency_hist_seqr::total      4890722                       (Unspecified)
board.cache_hierarchy.ruby_system.RequestType.RMW_Read.miss_latency_hist_seqr::bucket_size          512                       (Unspecified)
board.cache_hierarchy.ruby_system.RequestType.RMW_Read.miss_latency_hist_seqr::max_bucket         5119                       (Unspecified)
board.cache_hierarchy.ruby_system.RequestType.RMW_Read.miss_latency_hist_seqr::samples       895699                       (Unspecified)
board.cache_hierarchy.ruby_system.RequestType.RMW_Read.miss_latency_hist_seqr::mean    72.714992                       (Unspecified)
board.cache_hierarchy.ruby_system.RequestType.RMW_Read.miss_latency_hist_seqr::gmean    32.328075                       (Unspecified)
board.cache_hierarchy.ruby_system.RequestType.RMW_Read.miss_latency_hist_seqr::stdev   104.437329                       (Unspecified)
board.cache_hierarchy.ruby_system.RequestType.RMW_Read.miss_latency_hist_seqr |      890788     99.45%     99.45% |        4569      0.51%     99.96% |         310      0.03%    100.00% |          23      0.00%    100.00% |           5      0.00%    100.00% |           4      0.00%    100.00% |           0      0.00%    100.00% |           0      0.00%    100.00% |           0      0.00%    100.00% |           0      0.00%    100.00% (Unspecified)
board.cache_hierarchy.ruby_system.RequestType.RMW_Read.miss_latency_hist_seqr::total       895699                       (Unspecified)
board.cache_hierarchy.ruby_system.RequestType.Locked_RMW_Read.latency_hist_seqr::bucket_size          256                       (Unspecified)
board.cache_hierarchy.ruby_system.RequestType.Locked_RMW_Read.latency_hist_seqr::max_bucket         2559                       (Unspecified)
board.cache_hierarchy.ruby_system.RequestType.Locked_RMW_Read.latency_hist_seqr::samples       773834                       (Unspecified)
board.cache_hierarchy.ruby_system.RequestType.Locked_RMW_Read.latency_hist_seqr::mean    12.288499                       (Unspecified)
board.cache_hierarchy.ruby_system.RequestType.Locked_RMW_Read.latency_hist_seqr::gmean     1.470983                       (Unspecified)
board.cache_hierarchy.ruby_system.RequestType.Locked_RMW_Read.latency_hist_seqr::stdev    51.728198                       (Unspecified)
board.cache_hierarchy.ruby_system.RequestType.Locked_RMW_Read.latency_hist_seqr |      770539     99.57%     99.57% |        1900      0.25%     99.82% |         856      0.11%     99.93% |         510      0.07%    100.00% |          12      0.00%    100.00% |          16      0.00%    100.00% |           1      0.00%    100.00% |           0      0.00%    100.00% |           0      0.00%    100.00% |           0      0.00%    100.00% (Unspecified)
board.cache_hierarchy.ruby_system.RequestType.Locked_RMW_Read.latency_hist_seqr::total       773834                       (Unspecified)
board.cache_hierarchy.ruby_system.RequestType.Locked_RMW_Read.hit_latency_hist_seqr::bucket_size          128                       (Unspecified)
board.cache_hierarchy.ruby_system.RequestType.Locked_RMW_Read.hit_latency_hist_seqr::max_bucket         1279                       (Unspecified)
board.cache_hierarchy.ruby_system.RequestType.Locked_RMW_Read.hit_latency_hist_seqr::samples       705364                       (Unspecified)
board.cache_hierarchy.ruby_system.RequestType.Locked_RMW_Read.hit_latency_hist_seqr::mean     1.182228                       (Unspecified)
board.cache_hierarchy.ruby_system.RequestType.Locked_RMW_Read.hit_latency_hist_seqr::gmean     1.005863                       (Unspecified)
board.cache_hierarchy.ruby_system.RequestType.Locked_RMW_Read.hit_latency_hist_seqr::stdev     6.210359                       (Unspecified)
board.cache_hierarchy.ruby_system.RequestType.Locked_RMW_Read.hit_latency_hist_seqr |      704996     99.95%     99.95% |         336      0.05%    100.00% |           9      0.00%    100.00% |          11      0.00%    100.00% |           2      0.00%    100.00% |           4      0.00%    100.00% |           2      0.00%    100.00% |           4      0.00%    100.00% |           0      0.00%    100.00% |           0      0.00%    100.00% (Unspecified)
board.cache_hierarchy.ruby_system.RequestType.Locked_RMW_Read.hit_latency_hist_seqr::total       705364                       (Unspecified)
board.cache_hierarchy.ruby_system.RequestType.Locked_RMW_Read.miss_latency_hist_seqr::bucket_size          256                       (Unspecified)
board.cache_hierarchy.ruby_system.RequestType.Locked_RMW_Read.miss_latency_hist_seqr::max_bucket         2559                       (Unspecified)
board.cache_hierarchy.ruby_system.RequestType.Locked_RMW_Read.miss_latency_hist_seqr::samples        68470                       (Unspecified)
board.cache_hierarchy.ruby_system.RequestType.Locked_RMW_Read.miss_latency_hist_seqr::mean   126.703038                       (Unspecified)
board.cache_hierarchy.ruby_system.RequestType.Locked_RMW_Read.miss_latency_hist_seqr::gmean    73.809870                       (Unspecified)
board.cache_hierarchy.ruby_system.RequestType.Locked_RMW_Read.miss_latency_hist_seqr::stdev   124.430206                       (Unspecified)
board.cache_hierarchy.ruby_system.RequestType.Locked_RMW_Read.miss_latency_hist_seqr |       65207     95.23%     95.23% |        1880      2.75%     97.98% |         850      1.24%     99.22% |         504      0.74%     99.96% |          12      0.02%     99.98% |          16      0.02%    100.00% |           1      0.00%    100.00% |           0      0.00%    100.00% |           0      0.00%    100.00% |           0      0.00%    100.00% (Unspecified)
board.cache_hierarchy.ruby_system.RequestType.Locked_RMW_Read.miss_latency_hist_seqr::total        68470                       (Unspecified)
board.cache_hierarchy.ruby_system.RequestType.Locked_RMW_Write.latency_hist_seqr::bucket_size            1                       (Unspecified)
board.cache_hierarchy.ruby_system.RequestType.Locked_RMW_Write.latency_hist_seqr::max_bucket            9                       (Unspecified)
board.cache_hierarchy.ruby_system.RequestType.Locked_RMW_Write.latency_hist_seqr::samples       773850                       (Unspecified)
board.cache_hierarchy.ruby_system.RequestType.Locked_RMW_Write.latency_hist_seqr::mean            1                       (Unspecified)
board.cache_hierarchy.ruby_system.RequestType.Locked_RMW_Write.latency_hist_seqr::gmean            1                       (Unspecified)
board.cache_hierarchy.ruby_system.RequestType.Locked_RMW_Write.latency_hist_seqr |           0      0.00%      0.00% |      773850    100.00%    100.00% |           0      0.00%    100.00% |           0      0.00%    100.00% |           0      0.00%    100.00% |           0      0.00%    100.00% |           0      0.00%    100.00% |           0      0.00%    100.00% |           0      0.00%    100.00% |           0      0.00%    100.00% (Unspecified)
board.cache_hierarchy.ruby_system.RequestType.Locked_RMW_Write.latency_hist_seqr::total       773850                       (Unspecified)
board.cache_hierarchy.ruby_system.RequestType.Locked_RMW_Write.hit_latency_hist_seqr::bucket_size            1                       (Unspecified)
board.cache_hierarchy.ruby_system.RequestType.Locked_RMW_Write.hit_latency_hist_seqr::max_bucket            9                       (Unspecified)
board.cache_hierarchy.ruby_system.RequestType.Locked_RMW_Write.hit_latency_hist_seqr::samples       773850                       (Unspecified)
board.cache_hierarchy.ruby_system.RequestType.Locked_RMW_Write.hit_latency_hist_seqr::mean            1                       (Unspecified)
board.cache_hierarchy.ruby_system.RequestType.Locked_RMW_Write.hit_latency_hist_seqr::gmean            1                       (Unspecified)
board.cache_hierarchy.ruby_system.RequestType.Locked_RMW_Write.hit_latency_hist_seqr |           0      0.00%      0.00% |      773850    100.00%    100.00% |           0      0.00%    100.00% |           0      0.00%    100.00% |           0      0.00%    100.00% |           0      0.00%    100.00% |           0      0.00%    100.00% |           0      0.00%    100.00% |           0      0.00%    100.00% |           0      0.00%    100.00% (Unspecified)
board.cache_hierarchy.ruby_system.RequestType.Locked_RMW_Write.hit_latency_hist_seqr::total       773850                       (Unspecified)
board.cache_hierarchy.ruby_system.directory_controllers.power_state.pwrStateResidencyTicks::UNDEFINED 22708591645699                       # Cumulative time (in ticks) in various power states (Tick)
board.cache_hierarchy.ruby_system.directory_controllers.requestToDir.m_buf_msgs     0.000502                       # Average number of messages in buffer (Unspecified)
board.cache_hierarchy.ruby_system.directory_controllers.requestToDir.m_stall_time   207.984561                       # Average number of cycles messages are stalled in this MB (Unspecified)
board.cache_hierarchy.ruby_system.directory_controllers.requestToMemory.m_buf_msgs     0.003922                       # Average number of messages in buffer (Unspecified)
board.cache_hierarchy.ruby_system.directory_controllers.requestToMemory.m_stall_time   281.128759                       # Average number of cycles messages are stalled in this MB (Unspecified)
board.cache_hierarchy.ruby_system.directory_controllers.responseFromDir.m_buf_msgs     0.001000                       # Average number of messages in buffer (Unspecified)
board.cache_hierarchy.ruby_system.directory_controllers.responseFromDir.m_stall_time    30.523059                       # Average number of cycles messages are stalled in this MB (Unspecified)
board.cache_hierarchy.ruby_system.directory_controllers.responseFromMemory.m_buf_msgs     0.000889                       # Average number of messages in buffer (Unspecified)
board.cache_hierarchy.ruby_system.directory_controllers.responseFromMemory.m_stall_time    30.520093                       # Average number of cycles messages are stalled in this MB (Unspecified)
board.cache_hierarchy.ruby_system.directory_controllers.responseToDir.m_buf_msgs     0.000492                       # Average number of messages in buffer (Unspecified)
board.cache_hierarchy.ruby_system.directory_controllers.responseToDir.m_stall_time   190.292938                       # Average number of cycles messages are stalled in this MB (Unspecified)
board.cache_hierarchy.ruby_system.dma_controllers0.dma_sequencer.power_state.pwrStateResidencyTicks::UNDEFINED 22708591645699                       # Cumulative time (in ticks) in various power states (Tick)
board.cache_hierarchy.ruby_system.dma_controllers0.mandatoryQueue.m_buf_msgs     0.000010                       # Average number of messages in buffer (Unspecified)
board.cache_hierarchy.ruby_system.dma_controllers0.mandatoryQueue.m_stall_time    30.508728                       # Average number of cycles messages are stalled in this MB (Unspecified)
board.cache_hierarchy.ruby_system.dma_controllers0.power_state.pwrStateResidencyTicks::UNDEFINED 22708591645699                       # Cumulative time (in ticks) in various power states (Tick)
board.cache_hierarchy.ruby_system.dma_controllers0.requestToDir.m_buf_msgs     0.000061                       # Average number of messages in buffer (Unspecified)
board.cache_hierarchy.ruby_system.dma_controllers0.requestToDir.m_stall_time   183.052369                       # Average number of cycles messages are stalled in this MB (Unspecified)
board.cache_hierarchy.ruby_system.dma_controllers0.responseFromDir.m_buf_msgs     0.000010                       # Average number of messages in buffer (Unspecified)
board.cache_hierarchy.ruby_system.dma_controllers0.responseFromDir.m_stall_time   152.559254                       # Average number of cycles messages are stalled in this MB (Unspecified)
board.cache_hierarchy.ruby_system.dma_controllers1.dma_sequencer.power_state.pwrStateResidencyTicks::UNDEFINED 22708591645699                       # Cumulative time (in ticks) in various power states (Tick)
board.cache_hierarchy.ruby_system.dma_controllers1.power_state.pwrStateResidencyTicks::UNDEFINED 22708591645699                       # Cumulative time (in ticks) in various power states (Tick)
board.cache_hierarchy.ruby_system.l1_controllers.fullyBusyCycles      8552790                       # cycles for which number of transistions == max transitions (Unspecified)
board.cache_hierarchy.ruby_system.l1_controllers.delayHistogram::samples    140303495                       # delay_histogram (Unspecified)
board.cache_hierarchy.ruby_system.l1_controllers.delayHistogram::mean     0.698899                       # delay_histogram (Unspecified)
board.cache_hierarchy.ruby_system.l1_controllers.delayHistogram::stdev     2.601752                       # delay_histogram (Unspecified)
board.cache_hierarchy.ruby_system.l1_controllers.delayHistogram::0-15    139305573     99.29%     99.29% # delay_histogram (Unspecified)
board.cache_hierarchy.ruby_system.l1_controllers.delayHistogram::16-31       948717      0.68%     99.96% # delay_histogram (Unspecified)
board.cache_hierarchy.ruby_system.l1_controllers.delayHistogram::32-47        45561      0.03%    100.00% # delay_histogram (Unspecified)
board.cache_hierarchy.ruby_system.l1_controllers.delayHistogram::48-63         3480      0.00%    100.00% # delay_histogram (Unspecified)
board.cache_hierarchy.ruby_system.l1_controllers.delayHistogram::64-79          137      0.00%    100.00% # delay_histogram (Unspecified)
board.cache_hierarchy.ruby_system.l1_controllers.delayHistogram::80-95           27      0.00%    100.00% # delay_histogram (Unspecified)
board.cache_hierarchy.ruby_system.l1_controllers.delayHistogram::total    140303495                       # delay_histogram (Unspecified)
board.cache_hierarchy.ruby_system.l1_controllers.L1Dcache.m_demand_hits    547928754                       # Number of cache demand hits (Unspecified)
board.cache_hierarchy.ruby_system.l1_controllers.L1Dcache.m_demand_misses     42249407                       # Number of cache demand misses (Unspecified)
board.cache_hierarchy.ruby_system.l1_controllers.L1Dcache.m_demand_accesses    590178161                       # Number of cache demand accesses (Unspecified)
board.cache_hierarchy.ruby_system.l1_controllers.L1Icache.m_demand_hits    225892767                       # Number of cache demand hits (Unspecified)
board.cache_hierarchy.ruby_system.l1_controllers.L1Icache.m_demand_misses     35445921                       # Number of cache demand misses (Unspecified)
board.cache_hierarchy.ruby_system.l1_controllers.L1Icache.m_demand_accesses    261338688                       # Number of cache demand accesses (Unspecified)
board.cache_hierarchy.ruby_system.l1_controllers.mandatoryQueue.m_buf_msgs     0.013153                       # Average number of messages in buffer (Unspecified)
board.cache_hierarchy.ruby_system.l1_controllers.mandatoryQueue.m_stall_time    30.584192                       # Average number of cycles messages are stalled in this MB (Unspecified)
board.cache_hierarchy.ruby_system.l1_controllers.mandatoryQueue.m_stall_count        71032                       # Number of times messages were stalled (Unspecified)
board.cache_hierarchy.ruby_system.l1_controllers.power_state.pwrStateResidencyTicks::UNDEFINED 22708591645699                       # Cumulative time (in ticks) in various power states (Tick)
board.cache_hierarchy.ruby_system.l1_controllers.prefetcher.RubyPrefetcher.numMissObserved            0                       # Number of misses observed (Unspecified)
board.cache_hierarchy.ruby_system.l1_controllers.prefetcher.RubyPrefetcher.numAllocatedStreams            0                       # Number of streams allocated for prefetching (Unspecified)
board.cache_hierarchy.ruby_system.l1_controllers.prefetcher.RubyPrefetcher.numPrefetchRequested            0                       # Number of prefetch requests made (Unspecified)
board.cache_hierarchy.ruby_system.l1_controllers.prefetcher.RubyPrefetcher.numHits            0                       # Number of prefetched blocks accessed (for the first time) (Unspecified)
board.cache_hierarchy.ruby_system.l1_controllers.prefetcher.RubyPrefetcher.numPartialHits            0                       # Number of misses observed for a block being prefetched (Unspecified)
board.cache_hierarchy.ruby_system.l1_controllers.prefetcher.RubyPrefetcher.numPagesCrossed            0                       # Number of prefetches across pages (Unspecified)
board.cache_hierarchy.ruby_system.l1_controllers.prefetcher.RubyPrefetcher.numMissedPrefetchedBlocks            0                       # Number of misses for blocks that were prefetched, yet missed (Unspecified)
board.cache_hierarchy.ruby_system.l1_controllers.requestFromL1Cache.m_buf_msgs     0.003517                       # Average number of messages in buffer (Unspecified)
board.cache_hierarchy.ruby_system.l1_controllers.requestFromL1Cache.m_stall_time    61.040188                       # Average number of cycles messages are stalled in this MB (Unspecified)
board.cache_hierarchy.ruby_system.l1_controllers.requestToL1Cache.m_buf_msgs     0.000299                       # Average number of messages in buffer (Unspecified)
board.cache_hierarchy.ruby_system.l1_controllers.requestToL1Cache.m_stall_time   152.567173                       # Average number of cycles messages are stalled in this MB (Unspecified)
board.cache_hierarchy.ruby_system.l1_controllers.responseFromL1Cache.m_buf_msgs     0.000598                       # Average number of messages in buffer (Unspecified)
board.cache_hierarchy.ruby_system.l1_controllers.responseFromL1Cache.m_stall_time    61.022267                       # Average number of cycles messages are stalled in this MB (Unspecified)
board.cache_hierarchy.ruby_system.l1_controllers.responseToL1Cache.m_buf_msgs     0.001759                       # Average number of messages in buffer (Unspecified)
board.cache_hierarchy.ruby_system.l1_controllers.responseToL1Cache.m_stall_time   166.595629                       # Average number of cycles messages are stalled in this MB (Unspecified)
board.cache_hierarchy.ruby_system.l1_controllers.sequencer.power_state.pwrStateResidencyTicks::UNDEFINED 22708591645699                       # Cumulative time (in ticks) in various power states (Tick)
board.cache_hierarchy.ruby_system.l1_controllers.unblockFromL1Cache.m_buf_msgs     0.000619                       # Average number of messages in buffer (Unspecified)
board.cache_hierarchy.ruby_system.l1_controllers.unblockFromL1Cache.m_stall_time    30.520093                       # Average number of cycles messages are stalled in this MB (Unspecified)
board.cache_hierarchy.ruby_system.l2_controllers.fullyBusyCycles        47827                       # cycles for which number of transistions == max transitions (Unspecified)
board.cache_hierarchy.ruby_system.l2_controllers.delayHistogram::samples    249708913                       # delay_histogram (Unspecified)
board.cache_hierarchy.ruby_system.l2_controllers.delayHistogram::mean     0.637936                       # delay_histogram (Unspecified)
board.cache_hierarchy.ruby_system.l2_controllers.delayHistogram::stdev     2.332374                       # delay_histogram (Unspecified)
board.cache_hierarchy.ruby_system.l2_controllers.delayHistogram::0-15    248887832     99.67%     99.67% # delay_histogram (Unspecified)
board.cache_hierarchy.ruby_system.l2_controllers.delayHistogram::16-31       808228      0.32%     99.99% # delay_histogram (Unspecified)
board.cache_hierarchy.ruby_system.l2_controllers.delayHistogram::32-47        12475      0.00%    100.00% # delay_histogram (Unspecified)
board.cache_hierarchy.ruby_system.l2_controllers.delayHistogram::48-63          342      0.00%    100.00% # delay_histogram (Unspecified)
board.cache_hierarchy.ruby_system.l2_controllers.delayHistogram::64-79           29      0.00%    100.00% # delay_histogram (Unspecified)
board.cache_hierarchy.ruby_system.l2_controllers.delayHistogram::80-95            6      0.00%    100.00% # delay_histogram (Unspecified)
board.cache_hierarchy.ruby_system.l2_controllers.delayHistogram::96-111            1      0.00%    100.00% # delay_histogram (Unspecified)
board.cache_hierarchy.ruby_system.l2_controllers.delayHistogram::total    249708913                       # delay_histogram (Unspecified)
board.cache_hierarchy.ruby_system.l2_controllers.DirRequestFromL2Cache.m_buf_msgs     0.000984                       # Average number of messages in buffer (Unspecified)
board.cache_hierarchy.ruby_system.l2_controllers.DirRequestFromL2Cache.m_stall_time    61.040187                       # Average number of cycles messages are stalled in this MB (Unspecified)
board.cache_hierarchy.ruby_system.l2_controllers.L1RequestFromL2Cache.m_buf_msgs     0.000299                       # Average number of messages in buffer (Unspecified)
board.cache_hierarchy.ruby_system.l2_controllers.L1RequestFromL2Cache.m_stall_time    30.511133                       # Average number of cycles messages are stalled in this MB (Unspecified)
board.cache_hierarchy.ruby_system.l2_controllers.L1RequestToL2Cache.m_buf_msgs     0.001759                       # Average number of messages in buffer (Unspecified)
board.cache_hierarchy.ruby_system.l2_controllers.L1RequestToL2Cache.m_stall_time   211.010736                       # Average number of cycles messages are stalled in this MB (Unspecified)
board.cache_hierarchy.ruby_system.l2_controllers.L1RequestToL2Cache.m_stall_count         2273                       # Number of times messages were stalled (Unspecified)
board.cache_hierarchy.ruby_system.l2_controllers.L2cache.m_demand_hits     44141682                       # Number of cache demand hits (Unspecified)
board.cache_hierarchy.ruby_system.l2_controllers.L2cache.m_demand_misses     33553646                       # Number of cache demand misses (Unspecified)
board.cache_hierarchy.ruby_system.l2_controllers.L2cache.m_demand_accesses     77695328                       # Number of cache demand accesses (Unspecified)
board.cache_hierarchy.ruby_system.l2_controllers.power_state.pwrStateResidencyTicks::UNDEFINED 22708591645699                       # Cumulative time (in ticks) in various power states (Tick)
board.cache_hierarchy.ruby_system.l2_controllers.responseFromL2Cache.m_buf_msgs     0.003390                       # Average number of messages in buffer (Unspecified)
board.cache_hierarchy.ruby_system.l2_controllers.responseFromL2Cache.m_stall_time    51.858060                       # Average number of cycles messages are stalled in this MB (Unspecified)
board.cache_hierarchy.ruby_system.l2_controllers.responseToL2Cache.m_buf_msgs     0.001284                       # Average number of messages in buffer (Unspecified)
board.cache_hierarchy.ruby_system.l2_controllers.responseToL2Cache.m_stall_time   153.760589                       # Average number of cycles messages are stalled in this MB (Unspecified)
board.cache_hierarchy.ruby_system.l2_controllers.unblockToL2Cache.m_buf_msgs     0.000619                       # Average number of messages in buffer (Unspecified)
board.cache_hierarchy.ruby_system.l2_controllers.unblockToL2Cache.m_stall_time   152.603247                       # Average number of cycles messages are stalled in this MB (Unspecified)
board.cache_hierarchy.ruby_system.network.msg_count.Control    222497948                       (Unspecified)
board.cache_hierarchy.ruby_system.network.msg_byte.Control   1779983584                       (Unspecified)
board.cache_hierarchy.ruby_system.network.msg_count.Request_Control     40747548                       (Unspecified)
board.cache_hierarchy.ruby_system.network.msg_byte.Request_Control    325980384                       (Unspecified)
board.cache_hierarchy.ruby_system.network.msg_count.Response_Data    234189790                       (Unspecified)
board.cache_hierarchy.ruby_system.network.msg_byte.Response_Data  16861664880                       (Unspecified)
board.cache_hierarchy.ruby_system.network.msg_count.Response_Control    332765700                       (Unspecified)
board.cache_hierarchy.ruby_system.network.msg_byte.Response_Control   2662125600                       (Unspecified)
board.cache_hierarchy.ruby_system.network.msg_count.Writeback_Data     26217722                       (Unspecified)
board.cache_hierarchy.ruby_system.network.msg_byte.Writeback_Data   1887675984                       (Unspecified)
board.cache_hierarchy.ruby_system.network.msg_count.Writeback_Control     60602540                       (Unspecified)
board.cache_hierarchy.ruby_system.network.msg_byte.Writeback_Control    484820320                       (Unspecified)
board.cache_hierarchy.ruby_system.network.int_link_buffers0.m_buf_msgs     0.019193                       # Average number of messages in buffer (Unspecified)
board.cache_hierarchy.ruby_system.network.int_link_buffers0.m_stall_time  1623.080885                       # Average number of cycles messages are stalled in this MB (Unspecified)
board.cache_hierarchy.ruby_system.network.int_link_buffers1.m_buf_msgs     0.003261                       # Average number of messages in buffer (Unspecified)
board.cache_hierarchy.ruby_system.network.int_link_buffers1.m_stall_time  1332.063006                       # Average number of cycles messages are stalled in this MB (Unspecified)
board.cache_hierarchy.ruby_system.network.int_link_buffers2.m_buf_msgs     0.006760                       # Average number of messages in buffer (Unspecified)
board.cache_hierarchy.ruby_system.network.int_link_buffers2.m_stall_time   999.016329                       # Average number of cycles messages are stalled in this MB (Unspecified)
board.cache_hierarchy.ruby_system.network.int_link_buffers21.m_buf_msgs     0.019193                       # Average number of messages in buffer (Unspecified)
board.cache_hierarchy.ruby_system.network.int_link_buffers21.m_stall_time  1151.712706                       # Average number of cycles messages are stalled in this MB (Unspecified)
board.cache_hierarchy.ruby_system.network.int_link_buffers22.m_buf_msgs     0.003261                       # Average number of messages in buffer (Unspecified)
board.cache_hierarchy.ruby_system.network.int_link_buffers22.m_stall_time   999.125586                       # Average number of cycles messages are stalled in this MB (Unspecified)
board.cache_hierarchy.ruby_system.network.int_link_buffers25.m_buf_msgs     0.005370                       # Average number of messages in buffer (Unspecified)
board.cache_hierarchy.ruby_system.network.int_link_buffers25.m_stall_time  1585.094808                       # Average number of cycles messages are stalled in this MB (Unspecified)
board.cache_hierarchy.ruby_system.network.int_link_buffers26.m_buf_msgs     0.005370                       # Average number of messages in buffer (Unspecified)
board.cache_hierarchy.ruby_system.network.int_link_buffers26.m_stall_time  1410.868938                       # Average number of cycles messages are stalled in this MB (Unspecified)
board.cache_hierarchy.ruby_system.network.int_link_buffers46.m_buf_msgs     0.010749                       # Average number of messages in buffer (Unspecified)
board.cache_hierarchy.ruby_system.network.int_link_buffers46.m_stall_time  1000.566171                       # Average number of cycles messages are stalled in this MB (Unspecified)
board.cache_hierarchy.ruby_system.network.int_link_buffers51.m_buf_msgs     0.000112                       # Average number of messages in buffer (Unspecified)
board.cache_hierarchy.ruby_system.network.int_link_buffers51.m_stall_time   999.170433                       # Average number of cycles messages are stalled in this MB (Unspecified)
board.cache_hierarchy.ruby_system.network.int_link_buffers70.m_buf_msgs     0.000112                       # Average number of messages in buffer (Unspecified)
board.cache_hierarchy.ruby_system.network.int_link_buffers70.m_stall_time         2664                       # Average number of cycles messages are stalled in this MB (Unspecified)
board.cache_hierarchy.ruby_system.network.power_state.pwrStateResidencyTicks::UNDEFINED 22708591645699                       # Cumulative time (in ticks) in various power states (Tick)
board.cache_hierarchy.ruby_system.network.routers0.percent_links_utilized     1.679250                       (Unspecified)
board.cache_hierarchy.ruby_system.network.routers0.msg_count.Control::0     77695328                       (Unspecified)
board.cache_hierarchy.ruby_system.network.routers0.msg_bytes.Control::0    621562624                       (Unspecified)
board.cache_hierarchy.ruby_system.network.routers0.msg_count.Request_Control::2     20373774                       (Unspecified)
board.cache_hierarchy.ruby_system.network.routers0.msg_bytes.Request_Control::2    162990192                       (Unspecified)
board.cache_hierarchy.ruby_system.network.routers0.msg_count.Response_Data::1     77695296                       (Unspecified)
board.cache_hierarchy.ruby_system.network.routers0.msg_bytes.Response_Data::1   5594061312                       (Unspecified)
board.cache_hierarchy.ruby_system.network.routers0.msg_count.Response_Control::1     62603444                       (Unspecified)
board.cache_hierarchy.ruby_system.network.routers0.msg_count.Response_Control::2     42240939                       (Unspecified)
board.cache_hierarchy.ruby_system.network.routers0.msg_bytes.Response_Control::1    500827552                       (Unspecified)
board.cache_hierarchy.ruby_system.network.routers0.msg_bytes.Response_Control::2    337927512                       (Unspecified)
board.cache_hierarchy.ruby_system.network.routers0.msg_count.Writeback_Data::0     13104106                       (Unspecified)
board.cache_hierarchy.ruby_system.network.routers0.msg_count.Writeback_Data::1         4755                       (Unspecified)
board.cache_hierarchy.ruby_system.network.routers0.msg_bytes.Writeback_Data::0    943495632                       (Unspecified)
board.cache_hierarchy.ruby_system.network.routers0.msg_bytes.Writeback_Data::1       342360                       (Unspecified)
board.cache_hierarchy.ruby_system.network.routers0.msg_count.Writeback_Control::0     29130288                       (Unspecified)
board.cache_hierarchy.ruby_system.network.routers0.msg_bytes.Writeback_Control::0    233042304                       (Unspecified)
board.cache_hierarchy.ruby_system.network.routers0.port_buffers1.m_buf_msgs     0.001759                       # Average number of messages in buffer (Unspecified)
board.cache_hierarchy.ruby_system.network.routers0.port_buffers1.m_stall_time   136.075536                       # Average number of cycles messages are stalled in this MB (Unspecified)
board.cache_hierarchy.ruby_system.network.routers0.port_buffers2.m_buf_msgs     0.000299                       # Average number of messages in buffer (Unspecified)
board.cache_hierarchy.ruby_system.network.routers0.port_buffers2.m_stall_time   122.056039                       # Average number of cycles messages are stalled in this MB (Unspecified)
board.cache_hierarchy.ruby_system.network.routers0.port_buffers3.m_buf_msgs     0.002822                       # Average number of messages in buffer (Unspecified)
board.cache_hierarchy.ruby_system.network.routers0.port_buffers3.m_stall_time   118.236366                       # Average number of cycles messages are stalled in this MB (Unspecified)
board.cache_hierarchy.ruby_system.network.routers0.port_buffers4.m_buf_msgs     0.000299                       # Average number of messages in buffer (Unspecified)
board.cache_hierarchy.ruby_system.network.routers0.port_buffers4.m_stall_time    91.539173                       # Average number of cycles messages are stalled in this MB (Unspecified)
board.cache_hierarchy.ruby_system.network.routers0.port_buffers5.m_buf_msgs     0.000620                       # Average number of messages in buffer (Unspecified)
board.cache_hierarchy.ruby_system.network.routers0.port_buffers5.m_stall_time    61.041682                       # Average number of cycles messages are stalled in this MB (Unspecified)
board.cache_hierarchy.ruby_system.network.routers0.power_state.pwrStateResidencyTicks::UNDEFINED 22708591645699                       # Cumulative time (in ticks) in various power states (Tick)
board.cache_hierarchy.ruby_system.network.routers0.throttle00.link_utilization     6.096384                       (Unspecified)
board.cache_hierarchy.ruby_system.network.routers0.throttle00.msg_count.Request_Control::2     20373774                       (Unspecified)
board.cache_hierarchy.ruby_system.network.routers0.throttle00.msg_bytes.Request_Control::2    162990192                       (Unspecified)
board.cache_hierarchy.ruby_system.network.routers0.throttle00.msg_count.Response_Data::1     77695296                       (Unspecified)
board.cache_hierarchy.ruby_system.network.routers0.throttle00.msg_bytes.Response_Data::1   5594061312                       (Unspecified)
board.cache_hierarchy.ruby_system.network.routers0.throttle00.msg_count.Response_Control::1     42234425                       (Unspecified)
board.cache_hierarchy.ruby_system.network.routers0.throttle00.msg_bytes.Response_Control::1    337875400                       (Unspecified)
board.cache_hierarchy.ruby_system.network.routers0.throttle01.link_utilization     2.299868                       (Unspecified)
board.cache_hierarchy.ruby_system.network.routers0.throttle01.msg_count.Control::0     77695328                       (Unspecified)
board.cache_hierarchy.ruby_system.network.routers0.throttle01.msg_bytes.Control::0    621562624                       (Unspecified)
board.cache_hierarchy.ruby_system.network.routers0.throttle01.msg_count.Response_Control::1     20369019                       (Unspecified)
board.cache_hierarchy.ruby_system.network.routers0.throttle01.msg_count.Response_Control::2     42240939                       (Unspecified)
board.cache_hierarchy.ruby_system.network.routers0.throttle01.msg_bytes.Response_Control::1    162952152                       (Unspecified)
board.cache_hierarchy.ruby_system.network.routers0.throttle01.msg_bytes.Response_Control::2    337927512                       (Unspecified)
board.cache_hierarchy.ruby_system.network.routers0.throttle01.msg_count.Writeback_Data::0     13104106                       (Unspecified)
board.cache_hierarchy.ruby_system.network.routers0.throttle01.msg_count.Writeback_Data::1         4755                       (Unspecified)
board.cache_hierarchy.ruby_system.network.routers0.throttle01.msg_bytes.Writeback_Data::0    943495632                       (Unspecified)
board.cache_hierarchy.ruby_system.network.routers0.throttle01.msg_bytes.Writeback_Data::1       342360                       (Unspecified)
board.cache_hierarchy.ruby_system.network.routers0.throttle01.msg_count.Writeback_Control::0     29130288                       (Unspecified)
board.cache_hierarchy.ruby_system.network.routers0.throttle01.msg_bytes.Writeback_Control::0    233042304                       (Unspecified)
board.cache_hierarchy.ruby_system.network.routers0.throttle02.link_utilization            0                       (Unspecified)
board.cache_hierarchy.ruby_system.network.routers0.throttle03.link_utilization            0                       (Unspecified)
board.cache_hierarchy.ruby_system.network.routers0.throttle04.link_utilization            0                       (Unspecified)
board.cache_hierarchy.ruby_system.network.routers1.percent_links_utilized     2.395683                       (Unspecified)
board.cache_hierarchy.ruby_system.network.routers1.msg_count.Control::0    111248974                       (Unspecified)
board.cache_hierarchy.ruby_system.network.routers1.msg_bytes.Control::0    889991792                       (Unspecified)
board.cache_hierarchy.ruby_system.network.routers1.msg_count.Request_Control::2     20373774                       (Unspecified)
board.cache_hierarchy.ruby_system.network.routers1.msg_bytes.Request_Control::2    162990192                       (Unspecified)
board.cache_hierarchy.ruby_system.network.routers1.msg_count.Response_Data::1    116870857                       (Unspecified)
board.cache_hierarchy.ruby_system.network.routers1.msg_bytes.Response_Data::1   8414701704                       (Unspecified)
board.cache_hierarchy.ruby_system.network.routers1.msg_count.Response_Control::1    124141911                       (Unspecified)
board.cache_hierarchy.ruby_system.network.routers1.msg_count.Response_Control::2     42240939                       (Unspecified)
board.cache_hierarchy.ruby_system.network.routers1.msg_bytes.Response_Control::1    993135288                       (Unspecified)
board.cache_hierarchy.ruby_system.network.routers1.msg_bytes.Response_Control::2    337927512                       (Unspecified)
board.cache_hierarchy.ruby_system.network.routers1.msg_count.Writeback_Data::0     13104106                       (Unspecified)
board.cache_hierarchy.ruby_system.network.routers1.msg_count.Writeback_Data::1         4755                       (Unspecified)
[...]
board.processor.cores1.core.fetch.nisnDist::underflows            0      0.00%      0.00% # Number of instructions fetched each cycle (Total) (Count)
board.processor.cores1.core.fetch.nisnDist::0   2413978892     77.89%     77.89% # Number of instructions fetched each cycle (Total) (Count)
board.processor.cores1.core.fetch.nisnDist::1     42101537      1.36%     79.24% # Number of instructions fetched each cycle (Total) (Count)
board.processor.cores1.core.fetch.nisnDist::2     35429872      1.14%     80.39% # Number of instructions fetched each cycle (Total) (Count)
board.processor.cores1.core.fetch.nisnDist::3     34277086      1.11%     81.49% # Number of instructions fetched each cycle (Total) (Count)
board.processor.cores1.core.fetch.nisnDist::4    104398176      3.37%     84.86% # Number of instructions fetched each cycle (Total) (Count)
board.processor.cores1.core.fetch.nisnDist::5     47286958      1.53%     86.39% # Number of instructions fetched each cycle (Total) (Count)
board.processor.cores1.core.fetch.nisnDist::6     31963335      1.03%     87.42% # Number of instructions fetched each cycle (Total) (Count)
board.processor.cores1.core.fetch.nisnDist::7     33239677      1.07%     88.49% # Number of instructions fetched each cycle (Total) (Count)
board.processor.cores1.core.fetch.nisnDist::8    356703055     11.51%    100.00% # Number of instructions fetched each cycle (Total) (Count)
board.processor.cores1.core.fetch.nisnDist::overflows            0      0.00%    100.00% # Number of instructions fetched each cycle (Total) (Count)
board.processor.cores1.core.fetch.nisnDist::min_value            0                       # Number of instructions fetched each cycle (Total) (Count)
board.processor.cores1.core.fetch.nisnDist::max_value            8                       # Number of instructions fetched each cycle (Total) (Count)
board.processor.cores1.core.fetch.nisnDist::total   3099378588                       # Number of instructions fetched each cycle (Total) (Count)
board.processor.cores1.core.fetch.branchRate     0.085498                       # Number of branch fetches per cycle (Ratio)
board.processor.cores1.core.fetch.rate       0.399003                       # Number of inst fetches per cycle ((Count/Cycle))
board.processor.cores1.core.iew.idleCycles            0                       # Number of cycles IEW is idle (Cycle)
board.processor.cores1.core.iew.squashCycles     32352056                       # Number of cycles IEW is squashing (Cycle)
board.processor.cores1.core.iew.blockCycles    324756690                       # Number of cycles IEW is blocking (Cycle)
board.processor.cores1.core.iew.unblockCycles    140203057                       # Number of cycles IEW is unblocking (Cycle)
board.processor.cores1.core.iew.dispatchedInsts   3548231469                       # Number of instructions dispatched to IQ (Count)
board.processor.cores1.core.iew.dispSquashedInsts      3372247                       # Number of squashed instructions skipped by dispatch (Count)
board.processor.cores1.core.iew.dispLoadInsts    477544951                       # Number of dispatched load instructions (Count)
board.processor.cores1.core.iew.dispStoreInsts    325494081                       # Number of dispatched store instructions (Count)
board.processor.cores1.core.iew.dispNonSpecInsts      3780198                       # Number of dispatched non-speculative instructions (Count)
board.processor.cores1.core.iew.iqFullEvents      2130164                       # Number of times the IQ has become full, causing a stall (Count)
board.processor.cores1.core.iew.lsqFullEvents    136365806                       # Number of times the LSQ has become full, causing a stall (Count)
board.processor.cores1.core.iew.memOrderViolationEvents      1145176                       # Number of memory order violations (Count)
board.processor.cores1.core.iew.predictedTakenIncorrect      6560842                       # Number of branches that were predicted taken incorrectly (Count)
board.processor.cores1.core.iew.predictedNotTakenIncorrect     26458294                       # Number of branches that were predicted not taken incorrectly (Count)
board.processor.cores1.core.iew.branchMispredicts     33019136                       # Number of branch mispredicts detected at execute (Count)
board.processor.cores1.core.iew.instsToCommit   3275441983                       # Cumulative count of insts sent to commit (Count)
board.processor.cores1.core.iew.writebackCount   3249415153                       # Cumulative count of insts written-back (Count)
board.processor.cores1.core.iew.producerInst   2263716694                       # Number of instructions producing a value (Count)
board.processor.cores1.core.iew.consumerInst   3898407615                       # Number of instructions consuming a value (Count)
board.processor.cores1.core.iew.wbRate       0.624072                       # Insts written-back per cycle ((Count/Cycle))
board.processor.cores1.core.iew.wbFanout     0.580677                       # Average fanout of values written-back ((Count/Count))
board.processor.cores1.core.lsq0.forwLoads     64331633                       # Number of loads that had data forwarded from stores (Count)
board.processor.cores1.core.lsq0.squashedLoads    138865570                       # Number of loads squashed (Count)
board.processor.cores1.core.lsq0.ignoredResponses       372885                       # Number of memory responses ignored because the instruction is squashed (Count)
board.processor.cores1.core.lsq0.memOrderViolation      1145176                       # Number of memory ordering violations (Count)
board.processor.cores1.core.lsq0.squashedStores    106858092                       # Number of stores squashed (Count)
board.processor.cores1.core.lsq0.rescheduledLoads       225997                       # Number of loads that were rescheduled (Count)
board.processor.cores1.core.lsq0.blockedByCache       823510                       # Number of times an access to memory failed due to the cache being blocked (Count)
board.processor.cores1.core.lsq0.loadToUse::samples    337926467                       # Distribution of cycle latency between the first time a load is issued and its completion (Unspecified)
board.processor.cores1.core.lsq0.loadToUse::mean    11.720730                       # Distribution of cycle latency between the first time a load is issued and its completion (Unspecified)
board.processor.cores1.core.lsq0.loadToUse::stdev    46.756525                       # Distribution of cycle latency between the first time a load is issued and its completion (Unspecified)
board.processor.cores1.core.lsq0.loadToUse::0-9    301157824     89.12%     89.12% # Distribution of cycle latency between the first time a load is issued and its completion (Unspecified)
board.processor.cores1.core.lsq0.loadToUse::10-19     18739204      5.55%     94.66% # Distribution of cycle latency between the first time a load is issued and its completion (Unspecified)
board.processor.cores1.core.lsq0.loadToUse::20-29      3547620      1.05%     95.71% # Distribution of cycle latency between the first time a load is issued and its completion (Unspecified)
board.processor.cores1.core.lsq0.loadToUse::30-39       837662      0.25%     95.96% # Distribution of cycle latency between the first time a load is issued and its completion (Unspecified)
board.processor.cores1.core.lsq0.loadToUse::40-49       687207      0.20%     96.17% # Distribution of cycle latency between the first time a load is issued and its completion (Unspecified)
board.processor.cores1.core.lsq0.loadToUse::50-59       394600      0.12%     96.28% # Distribution of cycle latency between the first time a load is issued and its completion (Unspecified)
board.processor.cores1.core.lsq0.loadToUse::60-69       217866      0.06%     96.35% # Distribution of cycle latency between the first time a load is issued and its completion (Unspecified)
board.processor.cores1.core.lsq0.loadToUse::70-79       135931      0.04%     96.39% # Distribution of cycle latency between the first time a load is issued and its completion (Unspecified)
board.processor.cores1.core.lsq0.loadToUse::80-89       154741      0.05%     96.43% # Distribution of cycle latency between the first time a load is issued and its completion (Unspecified)
board.processor.cores1.core.lsq0.loadToUse::90-99       153854      0.05%     96.48% # Distribution of cycle latency between the first time a load is issued and its completion (Unspecified)
board.processor.cores1.core.lsq0.loadToUse::100-109       179352      0.05%     96.53% # Distribution of cycle latency between the first time a load is issued and its completion (Unspecified)
board.processor.cores1.core.lsq0.loadToUse::110-119       174365      0.05%     96.58% # Distribution of cycle latency between the first time a load is issued and its completion (Unspecified)
board.processor.cores1.core.lsq0.loadToUse::120-129       356883      0.11%     96.69% # Distribution of cycle latency between the first time a load is issued and its completion (Unspecified)
board.processor.cores1.core.lsq0.loadToUse::130-139       389726      0.12%     96.80% # Distribution of cycle latency between the first time a load is issued and its completion (Unspecified)
board.processor.cores1.core.lsq0.loadToUse::140-149      2813107      0.83%     97.64% # Distribution of cycle latency between the first time a load is issued and its completion (Unspecified)
board.processor.cores1.core.lsq0.loadToUse::150-159      1254678      0.37%     98.01% # Distribution of cycle latency between the first time a load is issued and its completion (Unspecified)
board.processor.cores1.core.lsq0.loadToUse::160-169       708852      0.21%     98.22% # Distribution of cycle latency between the first time a load is issued and its completion (Unspecified)
board.processor.cores1.core.lsq0.loadToUse::170-179       216900      0.06%     98.28% # Distribution of cycle latency between the first time a load is issued and its completion (Unspecified)
board.processor.cores1.core.lsq0.loadToUse::180-189       611280      0.18%     98.46% # Distribution of cycle latency between the first time a load is issued and its completion (Unspecified)
board.processor.cores1.core.lsq0.loadToUse::190-199       300786      0.09%     98.55% # Distribution of cycle latency between the first time a load is issued and its completion (Unspecified)
board.processor.cores1.core.lsq0.loadToUse::200-209       240721      0.07%     98.62% # Distribution of cycle latency between the first time a load is issued and its completion (Unspecified)
board.processor.cores1.core.lsq0.loadToUse::210-219       245834      0.07%     98.70% # Distribution of cycle latency between the first time a load is issued and its completion (Unspecified)
board.processor.cores1.core.lsq0.loadToUse::220-229       971997      0.29%     98.98% # Distribution of cycle latency between the first time a load is issued and its completion (Unspecified)
board.processor.cores1.core.lsq0.loadToUse::230-239       902336      0.27%     99.25% # Distribution of cycle latency between the first time a load is issued and its completion (Unspecified)
board.processor.cores1.core.lsq0.loadToUse::240-249       449113      0.13%     99.38% # Distribution of cycle latency between the first time a load is issued and its completion (Unspecified)
board.processor.cores1.core.lsq0.loadToUse::250-259       284071      0.08%     99.47% # Distribution of cycle latency between the first time a load is issued and its completion (Unspecified)
board.processor.cores1.core.lsq0.loadToUse::260-269       156910      0.05%     99.51% # Distribution of cycle latency between the first time a load is issued and its completion (Unspecified)
board.processor.cores1.core.lsq0.loadToUse::270-279       121291      0.04%     99.55% # Distribution of cycle latency between the first time a load is issued and its completion (Unspecified)
board.processor.cores1.core.lsq0.loadToUse::280-289        73351      0.02%     99.57% # Distribution of cycle latency between the first time a load is issued and its completion (Unspecified)
board.processor.cores1.core.lsq0.loadToUse::290-299        49621      0.01%     99.59% # Distribution of cycle latency between the first time a load is issued and its completion (Unspecified)
board.processor.cores1.core.lsq0.loadToUse::overflows      1398784      0.41%    100.00% # Distribution of cycle latency between the first time a load is issued and its completion (Unspecified)
board.processor.cores1.core.lsq0.loadToUse::min_value            2                       # Distribution of cycle latency between the first time a load is issued and its completion (Unspecified)
board.processor.cores1.core.lsq0.loadToUse::max_value         4836                       # Distribution of cycle latency between the first time a load is issued and its completion (Unspecified)
board.processor.cores1.core.lsq0.loadToUse::total    337926467                       # Distribution of cycle latency between the first time a load is issued and its completion (Unspecified)
board.processor.cores1.core.mmu.dtb.rdAccesses    449379986                       # TLB accesses on read requests (Count)
board.processor.cores1.core.mmu.dtb.wrAccesses    295605735                       # TLB accesses on write requests (Count)
board.processor.cores1.core.mmu.dtb.rdMisses      9451847                       # TLB misses on read requests (Count)
board.processor.cores1.core.mmu.dtb.wrMisses      3292957                       # TLB misses on write requests (Count)
board.processor.cores1.core.mmu.dtb.walker.power_state.pwrStateResidencyTicks::UNDEFINED 22708591645699                       # Cumulative time (in ticks) in various power states (Tick)
board.processor.cores1.core.mmu.itb.rdAccesses            0                       # TLB accesses on read requests (Count)
board.processor.cores1.core.mmu.itb.wrAccesses    277248455                       # TLB accesses on write requests (Count)
board.processor.cores1.core.mmu.itb.rdMisses            0                       # TLB misses on read requests (Count)
board.processor.cores1.core.mmu.itb.wrMisses      8550944                       # TLB misses on write requests (Count)
board.processor.cores1.core.mmu.itb.walker.power_state.pwrStateResidencyTicks::UNDEFINED 22708591645699                       # Cumulative time (in ticks) in various power states (Tick)
board.processor.cores1.core.power_state.numTransitions         1102                       # Number of power state transitions (Count)
board.processor.cores1.core.power_state.ticksClkGated::samples          551                       # Distribution of time spent in the clock gated state (Tick)
board.processor.cores1.core.power_state.ticksClkGated::mean 629048901.295826                       # Distribution of time spent in the clock gated state (Tick)
board.processor.cores1.core.power_state.ticksClkGated::stdev 380508003.514593                       # Distribution of time spent in the clock gated state (Tick)
board.processor.cores1.core.power_state.ticksClkGated::1000-5e+10          551    100.00%    100.00% # Distribution of time spent in the clock gated state (Tick)
board.processor.cores1.core.power_state.ticksClkGated::min_value        58277                       # Distribution of time spent in the clock gated state (Tick)
board.processor.cores1.core.power_state.ticksClkGated::max_value    999697968                       # Distribution of time spent in the clock gated state (Tick)
board.processor.cores1.core.power_state.ticksClkGated::total          551                       # Distribution of time spent in the clock gated state (Tick)
board.processor.cores1.core.power_state.pwrStateResidencyTicks::ON 1731811337274                       # Cumulative time (in ticks) in various power states (Tick)
board.processor.cores1.core.power_state.pwrStateResidencyTicks::CLK_GATED 346605944614                       # Cumulative time (in ticks) in various power states (Tick)
board.processor.cores1.core.power_state.pwrStateResidencyTicks::OFF 20630174363811                       # Cumulative time (in ticks) in various power states (Tick)
board.processor.cores1.core.rename.squashCycles     32352056                       # Number of cycles rename is squashing (Cycle)
board.processor.cores1.core.rename.idleCycles   1187391235                       # Number of cycles rename is idle (Cycle)
board.processor.cores1.core.rename.blockCycles    662684305                       # Number of cycles rename is blocking (Cycle)
board.processor.cores1.core.rename.serializeStallCycles    164172053                       # count of cycles rename stalled for serializing inst (Cycle)
board.processor.cores1.core.rename.runCycles    546969702                       # Number of cycles rename is running (Cycle)
board.processor.cores1.core.rename.unblockCycles    505809237                       # Number of cycles rename is unblocking (Cycle)
board.processor.cores1.core.rename.renamedInsts   3656273454                       # Number of instructions processed by rename (Count)
board.processor.cores1.core.rename.ROBFullEvents     11614633                       # Number of times rename has blocked due to ROB full (Count)
board.processor.cores1.core.rename.IQFullEvents    117117368                       # Number of times rename has blocked due to IQ full (Count)
board.processor.cores1.core.rename.LQFullEvents     27517401                       # Number of times rename has blocked due to LQ full (Count)
board.processor.cores1.core.rename.SQFullEvents    345468224                       # Number of times rename has blocked due to SQ full (Count)
board.processor.cores1.core.rename.fullRegistersEvents          695                       # Number of times there has been no free registers (Count)
board.processor.cores1.core.rename.renamedOperands   4015331454                       # Number of destination operands rename has renamed (Count)
board.processor.cores1.core.rename.lookups   9208737868                       # Number of register rename lookups that rename has made (Count)
board.processor.cores1.core.rename.intLookups   5529143882                       # Number of integer rename lookups (Count)
board.processor.cores1.core.rename.fpLookups    266196497                       # Number of floating rename lookups (Count)
board.processor.cores1.core.rename.committedMaps   3028414409                       # Number of HB maps that are committed (Count)
board.processor.cores1.core.rename.undoneMaps    986916895                       # Number of HB maps that are undone due to squashing (Count)
board.processor.cores1.core.rename.serializing      3260004                       # count of serializing insts renamed (Count)
board.processor.cores1.core.rename.tempSerializing      3247657                       # count of temporary serializing insts renamed (Count)
board.processor.cores1.core.rename.skidInsts    420540802                       # count of insts added to the skid buffer (Count)
board.processor.cores1.core.rob.reads      6341035545                       # The number of ROB reads (Count)
board.processor.cores1.core.rob.writes     7180061173                       # The number of ROB writes (Count)
board.processor.cores1.core.thread_0.numInsts   1362074816                       # Number of Instructions committed (Count)
board.processor.cores1.core.thread_0.numOps   2668220633                       # Number of Ops committed (Count)
board.processor.cores1.core.thread_0.numMemRefs            0                       # Number of Memory References (Count)
board.workload.inst.arm                             0                       # number of arm instructions executed (Count)
board.workload.inst.quiesce                         0                       # number of quiesce instructions executed (Count)

---------- End Simulation Statistics   ----------
