
---------- Begin Simulation Statistics ----------
simSeconds                                   2.337885                       # Number of seconds simulated (Second)
simTicks                                 2337885444996                       # Number of ticks simulated (Tick)
finalTick                                28541964522277                       # Number of ticks from beginning of simulation (restored from checkpoints and never reset) (Tick)
simFreq                                  1000000000000                       # The number of ticks per simulated second ((Tick/Second))
hostSeconds                                  63364.18                       # Real time elapsed on the host (Second)
hostTickRate                                 36896013                       # The number of ticks simulated per host second (ticks/s) ((Tick/Second))
hostMemory                                   14704644                       # Number of bytes of host memory used (Byte)
simInsts                                  13787276747                       # Number of instructions simulated (Count)
simOps                                    18382334725                       # Number of ops (including micro ops) simulated (Count)
hostInstRate                                   217588                       # Simulator instruction rate (inst/s) ((Count/Second))
hostOpRate                                     290106                       # Simulator op (including micro ops) rate (op/s) ((Count/Second))
board.cache_hierarchy.ruby_system.delayHistogram::bucket_size          512                       # delay histogram for all message (Unspecified)
board.cache_hierarchy.ruby_system.delayHistogram::max_bucket         5119                       # delay histogram for all message (Unspecified)
board.cache_hierarchy.ruby_system.delayHistogram::samples    947253466                       # delay histogram for all message (Unspecified)
board.cache_hierarchy.ruby_system.delayHistogram::mean     0.651871                       # delay histogram for all message (Unspecified)
board.cache_hierarchy.ruby_system.delayHistogram::stdev     2.792680                       # delay histogram for all message (Unspecified)
board.cache_hierarchy.ruby_system.delayHistogram |   947252674    100.00%    100.00% |         596      0.00%    100.00% |         130      0.00%    100.00% |          33      0.00%    100.00% |          16      0.00%    100.00% |           8      0.00%    100.00% |           2      0.00%    100.00% |           4      0.00%    100.00% |           1      0.00%    100.00% |           2      0.00%    100.00% # delay histogram for all message (Unspecified)
board.cache_hierarchy.ruby_system.delayHistogram::total    947253466                       # delay histogram for all message (Unspecified)
board.cache_hierarchy.ruby_system.m_outstandReqHistSeqr::bucket_size            2                       (Unspecified)
board.cache_hierarchy.ruby_system.m_outstandReqHistSeqr::max_bucket           19                       (Unspecified)
board.cache_hierarchy.ruby_system.m_outstandReqHistSeqr::samples   2997457541                       (Unspecified)
board.cache_hierarchy.ruby_system.m_outstandReqHistSeqr::mean     2.080163                       (Unspecified)
board.cache_hierarchy.ruby_system.m_outstandReqHistSeqr::gmean     1.735997                       (Unspecified)
board.cache_hierarchy.ruby_system.m_outstandReqHistSeqr::stdev     1.539164                       (Unspecified)
board.cache_hierarchy.ruby_system.m_outstandReqHistSeqr |  1312367922     43.78%     43.78% |  1340503905     44.72%     88.50% |   255560731      8.53%     97.03% |    51909198      1.73%     98.76% |    17986908      0.60%     99.36% |     7552271      0.25%     99.61% |     4871500      0.16%     99.78% |     4072839      0.14%     99.91% |     2632267      0.09%    100.00% |           0      0.00%    100.00% (Unspecified)
board.cache_hierarchy.ruby_system.m_outstandReqHistSeqr::total   2997457541                       (Unspecified)
board.cache_hierarchy.ruby_system.m_latencyHistSeqr::bucket_size         2048                       (Unspecified)
board.cache_hierarchy.ruby_system.m_latencyHistSeqr::max_bucket        20479                       (Unspecified)
board.cache_hierarchy.ruby_system.m_latencyHistSeqr::samples   3011799166                       (Unspecified)
board.cache_hierarchy.ruby_system.m_latencyHistSeqr::mean    11.959024                       (Unspecified)
board.cache_hierarchy.ruby_system.m_latencyHistSeqr::gmean     1.301763                       (Unspecified)
board.cache_hierarchy.ruby_system.m_latencyHistSeqr::stdev    62.908931                       (Unspecified)
board.cache_hierarchy.ruby_system.m_latencyHistSeqr |  3011771878    100.00%    100.00% |       19731      0.00%    100.00% |        3573      0.00%    100.00% |        1686      0.00%    100.00% |         918      0.00%    100.00% |         593      0.00%    100.00% |         430      0.00%    100.00% |         236      0.00%    100.00% |          92      0.00%    100.00% |          29      0.00%    100.00% (Unspecified)
board.cache_hierarchy.ruby_system.m_latencyHistSeqr::total   3011799166                       (Unspecified)
board.cache_hierarchy.ruby_system.m_hitLatencyHistSeqr::bucket_size         2048                       (Unspecified)
board.cache_hierarchy.ruby_system.m_hitLatencyHistSeqr::max_bucket        20479                       (Unspecified)
board.cache_hierarchy.ruby_system.m_hitLatencyHistSeqr::samples   2843303906                       (Unspecified)
board.cache_hierarchy.ruby_system.m_hitLatencyHistSeqr::mean     1.050162                       (Unspecified)
board.cache_hierarchy.ruby_system.m_hitLatencyHistSeqr::gmean     1.005225                       (Unspecified)
board.cache_hierarchy.ruby_system.m_hitLatencyHistSeqr::stdev     4.019002                       (Unspecified)
board.cache_hierarchy.ruby_system.m_hitLatencyHistSeqr |  2843303792    100.00%    100.00% |          82      0.00%    100.00% |          16      0.00%    100.00% |           8      0.00%    100.00% |           6      0.00%    100.00% |           1      0.00%    100.00% |           0      0.00%    100.00% |           0      0.00%    100.00% |           1      0.00%    100.00% |           0      0.00%    100.00% (Unspecified)
board.cache_hierarchy.ruby_system.m_hitLatencyHistSeqr::total   2843303906                       (Unspecified)
board.cache_hierarchy.ruby_system.m_missLatencyHistSeqr::bucket_size         2048                       (Unspecified)
board.cache_hierarchy.ruby_system.m_missLatencyHistSeqr::max_bucket        20479                       (Unspecified)
board.cache_hierarchy.ruby_system.m_missLatencyHistSeqr::samples    168495260                       (Unspecified)
board.cache_hierarchy.ruby_system.m_missLatencyHistSeqr::mean   196.042603                       (Unspecified)
board.cache_hierarchy.ruby_system.m_missLatencyHistSeqr::gmean   102.099498                       (Unspecified)
board.cache_hierarchy.ruby_system.m_missLatencyHistSeqr::stdev   185.935963                       (Unspecified)
board.cache_hierarchy.ruby_system.m_missLatencyHistSeqr |   168468086     99.98%     99.98% |       19649      0.01%    100.00% |        3557      0.00%    100.00% |        1678      0.00%    100.00% |         912      0.00%    100.00% |         592      0.00%    100.00% |         430      0.00%    100.00% |         236      0.00%    100.00% |          91      0.00%    100.00% |          29      0.00%    100.00% (Unspecified)
board.cache_hierarchy.ruby_system.m_missLatencyHistSeqr::total    168495260                       (Unspecified)
board.cache_hierarchy.ruby_system.delayVCHist.vnet_0::bucket_size          512                       # delay histogram for vnet_0 (Unspecified)
board.cache_hierarchy.ruby_system.delayVCHist.vnet_0::max_bucket         5119                       # delay histogram for vnet_0 (Unspecified)
board.cache_hierarchy.ruby_system.delayVCHist.vnet_0::samples    291256432                       # delay histogram for vnet_0 (Unspecified)
board.cache_hierarchy.ruby_system.delayVCHist.vnet_0::mean     1.217687                       # delay histogram for vnet_0 (Unspecified)
board.cache_hierarchy.ruby_system.delayVCHist.vnet_0::stdev     4.205653                       # delay histogram for vnet_0 (Unspecified)
board.cache_hierarchy.ruby_system.delayVCHist.vnet_0 |   291255640    100.00%    100.00% |         596      0.00%    100.00% |         130      0.00%    100.00% |          33      0.00%    100.00% |          16      0.00%    100.00% |           8      0.00%    100.00% |           2      0.00%    100.00% |           4      0.00%    100.00% |           1      0.00%    100.00% |           2      0.00%    100.00% # delay histogram for vnet_0 (Unspecified)
board.cache_hierarchy.ruby_system.delayVCHist.vnet_0::total    291256432                       # delay histogram for vnet_0 (Unspecified)
board.cache_hierarchy.ruby_system.delayVCHist.vnet_1::bucket_size           16                       # delay histogram for vnet_1 (Unspecified)
board.cache_hierarchy.ruby_system.delayVCHist.vnet_1::max_bucket          159                       # delay histogram for vnet_1 (Unspecified)
board.cache_hierarchy.ruby_system.delayVCHist.vnet_1::samples    547744882                       # delay histogram for vnet_1 (Unspecified)
board.cache_hierarchy.ruby_system.delayVCHist.vnet_1::mean     0.479773                       # delay histogram for vnet_1 (Unspecified)
board.cache_hierarchy.ruby_system.delayVCHist.vnet_1::stdev     1.948968                       # delay histogram for vnet_1 (Unspecified)
board.cache_hierarchy.ruby_system.delayVCHist.vnet_1 |   546452229     99.76%     99.76% |     1255743      0.23%     99.99% |       32529      0.01%    100.00% |        3447      0.00%    100.00% |         661      0.00%    100.00% |         210      0.00%    100.00% |          54      0.00%    100.00% |           6      0.00%    100.00% |           1      0.00%    100.00% |           2      0.00%    100.00% # delay histogram for vnet_1 (Unspecified)
board.cache_hierarchy.ruby_system.delayVCHist.vnet_1::total    547744882                       # delay histogram for vnet_1 (Unspecified)
board.cache_hierarchy.ruby_system.delayVCHist.vnet_2::bucket_size            1                       # delay histogram for vnet_2 (Unspecified)
board.cache_hierarchy.ruby_system.delayVCHist.vnet_2::max_bucket            9                       # delay histogram for vnet_2 (Unspecified)
board.cache_hierarchy.ruby_system.delayVCHist.vnet_2::samples    108252152                       # delay histogram for vnet_2 (Unspecified)
board.cache_hierarchy.ruby_system.delayVCHist.vnet_2::mean     0.000320                       # delay histogram for vnet_2 (Unspecified)
board.cache_hierarchy.ruby_system.delayVCHist.vnet_2::stdev     0.025351                       # delay histogram for vnet_2 (Unspecified)
board.cache_hierarchy.ruby_system.delayVCHist.vnet_2 |   108234895     99.98%     99.98% |           0      0.00%     99.98% |       17211      0.02%    100.00% |           0      0.00%    100.00% |          46      0.00%    100.00% |           0      0.00%    100.00% |           0      0.00%    100.00% |           0      0.00%    100.00% |           0      0.00%    100.00% |           0      0.00%    100.00% # delay histogram for vnet_2 (Unspecified)
board.cache_hierarchy.ruby_system.delayVCHist.vnet_2::total    108252152                       # delay histogram for vnet_2 (Unspecified)
board.cache_hierarchy.ruby_system.Directory_Controller.Fetch    112956842      0.00%      0.00% (Unspecified)
board.cache_hierarchy.ruby_system.Directory_Controller.Data     22962173      0.00%      0.00% (Unspecified)
board.cache_hierarchy.ruby_system.Directory_Controller.Memory_Data    113267162      0.00%      0.00% (Unspecified)
board.cache_hierarchy.ruby_system.Directory_Controller.Memory_Ack     24564924      0.00%      0.00% (Unspecified)
board.cache_hierarchy.ruby_system.Directory_Controller.DMA_READ       317464      0.00%      0.00% (Unspecified)
board.cache_hierarchy.ruby_system.Directory_Controller.DMA_WRITE      1602752      0.00%      0.00% (Unspecified)
board.cache_hierarchy.ruby_system.Directory_Controller.CleanReplacement     89990572      0.00%      0.00% (Unspecified)
board.cache_hierarchy.ruby_system.Directory_Controller.I.Fetch    112956842      0.00%      0.00% (Unspecified)
board.cache_hierarchy.ruby_system.Directory_Controller.I.DMA_READ       310324      0.00%      0.00% (Unspecified)
board.cache_hierarchy.ruby_system.Directory_Controller.I.DMA_WRITE      1602751      0.00%      0.00% (Unspecified)
board.cache_hierarchy.ruby_system.Directory_Controller.ID.Memory_Data       310324      0.00%      0.00% (Unspecified)
board.cache_hierarchy.ruby_system.Directory_Controller.ID_W.Memory_Ack      1602751      0.00%      0.00% (Unspecified)
board.cache_hierarchy.ruby_system.Directory_Controller.M.Data     22955032      0.00%      0.00% (Unspecified)
board.cache_hierarchy.ruby_system.Directory_Controller.M.DMA_READ         7140      0.00%      0.00% (Unspecified)
board.cache_hierarchy.ruby_system.Directory_Controller.M.DMA_WRITE            1      0.00%      0.00% (Unspecified)
board.cache_hierarchy.ruby_system.Directory_Controller.M.CleanReplacement     89990572      0.00%      0.00% (Unspecified)
board.cache_hierarchy.ruby_system.Directory_Controller.IM.Memory_Data    112956838      0.00%      0.00% (Unspecified)
board.cache_hierarchy.ruby_system.Directory_Controller.MI.Memory_Ack     22955032      0.00%      0.00% (Unspecified)
board.cache_hierarchy.ruby_system.Directory_Controller.M_DRD.Data         7140      0.00%      0.00% (Unspecified)
board.cache_hierarchy.ruby_system.Directory_Controller.M_DRDI.Memory_Ack         7140      0.00%      0.00% (Unspecified)
board.cache_hierarchy.ruby_system.Directory_Controller.M_DWR.Data            1      0.00%      0.00% (Unspecified)
board.cache_hierarchy.ruby_system.Directory_Controller.M_DWRI.Memory_Ack            1      0.00%      0.00% (Unspecified)
board.cache_hierarchy.ruby_system.DMA_Controller.ReadRequest |      317464    100.00%    100.00% |           0      0.00%    100.00% (Unspecified)
board.cache_hierarchy.ruby_system.DMA_Controller.ReadRequest::total       317464                       (Unspecified)
board.cache_hierarchy.ruby_system.DMA_Controller.WriteRequest |     1602752    100.00%    100.00% |           0      0.00%    100.00% (Unspecified)
board.cache_hierarchy.ruby_system.DMA_Controller.WriteRequest::total      1602752                       (Unspecified)
board.cache_hierarchy.ruby_system.DMA_Controller.Data |      317464    100.00%    100.00% |           0      0.00%    100.00% (Unspecified)
board.cache_hierarchy.ruby_system.DMA_Controller.Data::total       317464                       (Unspecified)
board.cache_hierarchy.ruby_system.DMA_Controller.Ack |     1602752    100.00%    100.00% |           0      0.00%    100.00% (Unspecified)
board.cache_hierarchy.ruby_system.DMA_Controller.Ack::total      1602752                       (Unspecified)
board.cache_hierarchy.ruby_system.DMA_Controller.READY.ReadRequest |      317464    100.00%    100.00% |           0      0.00%    100.00% (Unspecified)
board.cache_hierarchy.ruby_system.DMA_Controller.READY.ReadRequest::total       317464                       (Unspecified)
board.cache_hierarchy.ruby_system.DMA_Controller.READY.WriteRequest |     1602752    100.00%    100.00% |           0      0.00%    100.00% (Unspecified)
board.cache_hierarchy.ruby_system.DMA_Controller.READY.WriteRequest::total      1602752                       (Unspecified)
board.cache_hierarchy.ruby_system.DMA_Controller.BUSY_RD.Data |      317464    100.00%    100.00% |           0      0.00%    100.00% (Unspecified)
board.cache_hierarchy.ruby_system.DMA_Controller.BUSY_RD.Data::total       317464                       (Unspecified)
board.cache_hierarchy.ruby_system.DMA_Controller.BUSY_WR.Ack |     1602752    100.00%    100.00% |           0      0.00%    100.00% (Unspecified)
board.cache_hierarchy.ruby_system.DMA_Controller.BUSY_WR.Ack::total      1602752                       (Unspecified)
board.cache_hierarchy.ruby_system.L1Cache_Controller.Load |   352561958     27.00%     27.00% |    74762261      5.73%     32.72% |    68253597      5.23%     37.95% |    67211339      5.15%     43.10% |    30470118      2.33%     45.43% |    60553207      4.64%     50.07% |    96351941      7.38%     57.45% |    40985894      3.14%     60.59% |    61428990      4.70%     65.29% |    80035350      6.13%     71.42% |    66813804      5.12%     76.54% |    27767707      2.13%     78.66% |    89228458      6.83%     85.50% |    92175156      7.06%     92.55% |    67526032      5.17%     97.73% |    29706740      2.27%    100.00% (Unspecified)
board.cache_hierarchy.ruby_system.L1Cache_Controller.Load::total   1305832552                       (Unspecified)
board.cache_hierarchy.ruby_system.L1Cache_Controller.Ifetch |   276000791     29.31%     29.31% |    50753599      5.39%     34.69% |    49185004      5.22%     39.92% |    47901748      5.09%     45.00% |    22290560      2.37%     47.37% |    41494698      4.41%     51.77% |    66212363      7.03%     58.81% |    28048650      2.98%     61.78% |    40317700      4.28%     66.06% |    57768594      6.13%     72.20% |    47199063      5.01%     77.21% |    19981933      2.12%     79.33% |    57796862      6.14%     85.47% |    65989555      7.01%     92.47% |    49158041      5.22%     97.69% |    21720782      2.31%    100.00% (Unspecified)
board.cache_hierarchy.ruby_system.L1Cache_Controller.Ifetch::total    941819943                       (Unspecified)
board.cache_hierarchy.ruby_system.L1Cache_Controller.Store |   200897252     26.22%     26.22% |    43438133      5.67%     31.89% |    40404456      5.27%     37.16% |    41539160      5.42%     42.58% |    22212529      2.90%     45.48% |    32930842      4.30%     49.78% |    59404915      7.75%     57.53% |    22344864      2.92%     60.45% |    35233594      4.60%     65.05% |    48395111      6.32%     71.36% |    38814604      5.07%     76.43% |    16589502      2.17%     78.59% |    53006061      6.92%     85.51% |    52911065      6.91%     92.42% |    38885355      5.07%     97.49% |    19215588      2.51%    100.00% (Unspecified)
board.cache_hierarchy.ruby_system.L1Cache_Controller.Store::total    766223031                       (Unspecified)
board.cache_hierarchy.ruby_system.L1Cache_Controller.Inv |     7223857      6.81%      6.81% |     8895462      8.38%     15.19% |     7475414      7.05%     22.24% |     7314467      6.89%     29.14% |     3543545      3.34%     32.48% |     7154162      6.74%     39.22% |     9303724      8.77%     47.99% |     4837252      4.56%     52.55% |     5290698      4.99%     57.54% |     9227646      8.70%     66.23% |     6886493      6.49%     72.72% |     3628010      3.42%     76.14% |     4978070      4.69%     80.84% |     9198870      8.67%     89.51% |     7971643      7.51%     97.02% |     3160158      2.98%    100.00% (Unspecified)
board.cache_hierarchy.ruby_system.L1Cache_Controller.Inv::total    106089471                       (Unspecified)
board.cache_hierarchy.ruby_system.L1Cache_Controller.L1_Replacement |    20224127     14.43%     14.43% |     9214993      6.57%     21.00% |     8831413      6.30%     27.30% |     8380647      5.98%     33.28% |     3845149      2.74%     36.02% |     8143376      5.81%     41.83% |    12303467      8.78%     50.61% |     5070341      3.62%     54.22% |     7318360      5.22%     59.44% |    11376795      8.12%     67.56% |     8251029      5.89%     73.44% |     3550016      2.53%     75.98% |     9225516      6.58%     82.56% |    12051648      8.60%     91.15% |     9376033      6.69%     97.84% |     3026285      2.16%    100.00% (Unspecified)
board.cache_hierarchy.ruby_system.L1Cache_Controller.L1_Replacement::total    140189195                       (Unspecified)
board.cache_hierarchy.ruby_system.L1Cache_Controller.Fwd_GETX |        5251      3.00%      3.00% |       18060     10.30%     13.30% |       12776      7.29%     20.59% |       14958      8.53%     29.12% |        9009      5.14%     34.26% |       12326      7.03%     41.29% |       14460      8.25%     49.54% |       10727      6.12%     55.66% |        7165      4.09%     59.74% |       16651      9.50%     69.24% |       10423      5.95%     75.19% |        8351      4.76%     79.95% |         695      0.40%     80.35% |       15358      8.76%     89.11% |       11459      6.54%     95.64% |        7636      4.36%    100.00% (Unspecified)
board.cache_hierarchy.ruby_system.L1Cache_Controller.Fwd_GETX::total       175305                       (Unspecified)
board.cache_hierarchy.ruby_system.L1Cache_Controller.Fwd_GETS |      121917      6.13%      6.13% |      193236      9.72%     15.86% |      151823      7.64%     23.50% |      148463      7.47%     30.97% |       72079      3.63%     34.60% |      155795      7.84%     42.44% |      149174      7.51%     49.94% |      109587      5.51%     55.46% |       88621      4.46%     59.92% |      185105      9.31%     69.23% |      124382      6.26%     75.49% |       71733      3.61%     79.10% |       27396      1.38%     80.48% |      174577      8.78%     89.26% |      152141      7.66%     96.92% |       61248      3.08%    100.00% (Unspecified)
board.cache_hierarchy.ruby_system.L1Cache_Controller.Fwd_GETS::total      1987277                       (Unspecified)
board.cache_hierarchy.ruby_system.L1Cache_Controller.Fwd_GET_INSTR |           1      1.01%      1.01% |           9      9.09%     10.10% |           7      7.07%     17.17% |           4      4.04%     21.21% |           6      6.06%     27.27% |          12     12.12%     39.39% |           5      5.05%     44.44% |           4      4.04%     48.48% |           6      6.06%     54.55% |           6      6.06%     60.61% |           7      7.07%     67.68% |           3      3.03%     70.71% |           2      2.02%     72.73% |           9      9.09%     81.82% |          12     12.12%     93.94% |           6      6.06%    100.00% (Unspecified)
board.cache_hierarchy.ruby_system.L1Cache_Controller.Fwd_GET_INSTR::total           99                       (Unspecified)
board.cache_hierarchy.ruby_system.L1Cache_Controller.Data |        2517     22.43%     22.43% |         742      6.61%     29.05% |         721      6.43%     35.47% |         722      6.43%     41.91% |         527      4.70%     46.60% |         550      4.90%     51.51% |         539      4.80%     56.31% |         593      5.29%     61.60% |         328      2.92%     64.52% |         649      5.78%     70.30% |         581      5.18%     75.48% |         678      6.04%     81.52% |         175      1.56%     83.08% |         750      6.68%     89.77% |         559      4.98%     94.75% |         589      5.25%    100.00% (Unspecified)
board.cache_hierarchy.ruby_system.L1Cache_Controller.Data::total        11220                       (Unspecified)
board.cache_hierarchy.ruby_system.L1Cache_Controller.Data_Exclusive |    15460641     26.24%     26.24% |     3170584      5.38%     31.62% |     2993731      5.08%     36.70% |     2922409      4.96%     41.65% |     1289570      2.19%     43.84% |     2588916      4.39%     48.24% |     4568313      7.75%     55.99% |     1703249      2.89%     58.88% |     2780861      4.72%     63.60% |     3735352      6.34%     69.94% |     3295370      5.59%     75.53% |     1152623      1.96%     77.48% |     4846224      8.22%     85.71% |     4385135      7.44%     93.15% |     2886525      4.90%     98.05% |     1151586      1.95%    100.00% (Unspecified)
board.cache_hierarchy.ruby_system.L1Cache_Controller.Data_Exclusive::total     58931089                       (Unspecified)
board.cache_hierarchy.ruby_system.L1Cache_Controller.DataS_fromL1 |       66351      3.34%      3.34% |      354049     17.81%     21.15% |      142683      7.18%     28.33% |      134626      6.77%     35.11% |       64812      3.26%     38.37% |      147803      7.44%     45.81% |      129536      6.52%     52.32% |      105774      5.32%     57.65% |       82335      4.14%     61.79% |      160230      8.06%     69.85% |      124677      6.27%     76.12% |       72398      3.64%     79.77% |       29581      1.49%     81.26% |      159143      8.01%     89.26% |      149896      7.54%     96.81% |       63482      3.19%    100.00% (Unspecified)
board.cache_hierarchy.ruby_system.L1Cache_Controller.DataS_fromL1::total      1987376                       (Unspecified)
board.cache_hierarchy.ruby_system.L1Cache_Controller.Data_all_Acks |     7784127      7.26%      7.26% |     8411933      7.84%     15.10% |     7411677      6.91%     22.01% |     7064493      6.59%     28.59% |     3751045      3.50%     32.09% |     6917721      6.45%     38.54% |     9716016      9.06%     47.59% |     4556606      4.25%     51.84% |     5825817      5.43%     57.27% |     9270309      8.64%     65.91% |     6652684      6.20%     72.11% |     3486644      3.25%     75.36% |     6177765      5.76%     81.12% |     9317725      8.69%     89.81% |     7895260      7.36%     97.17% |     3037263      2.83%    100.00% (Unspecified)
board.cache_hierarchy.ruby_system.L1Cache_Controller.Data_all_Acks::total    107277085                       (Unspecified)
board.cache_hierarchy.ruby_system.L1Cache_Controller.Ack |       46460      9.63%      9.63% |       72509     15.04%     24.67% |       32887      6.82%     31.49% |       37165      7.71%     39.20% |       23485      4.87%     44.07% |       28545      5.92%     49.99% |       29686      6.16%     56.14% |       25324      5.25%     61.40% |       16153      3.35%     64.75% |       35549      7.37%     72.12% |       26146      5.42%     77.54% |       22291      4.62%     82.16% |        4240      0.88%     83.04% |       34342      7.12%     90.16% |       27578      5.72%     95.88% |       19856      4.12%    100.00% (Unspecified)
board.cache_hierarchy.ruby_system.L1Cache_Controller.Ack::total       482216                       (Unspecified)
board.cache_hierarchy.ruby_system.L1Cache_Controller.Ack_all |       28060      6.90%      6.90% |       66362     16.33%     23.23% |       25823      6.35%     29.58% |       31242      7.69%     37.27% |       17975      4.42%     41.69% |       24895      6.12%     47.82% |       26631      6.55%     54.37% |       22345      5.50%     59.87% |       14359      3.53%     63.40% |       32922      8.10%     71.50% |       23084      5.68%     77.18% |       17238      4.24%     81.42% |        3177      0.78%     82.20% |       31151      7.66%     89.87% |       24605      6.05%     95.92% |       16582      4.08%    100.00% (Unspecified)
board.cache_hierarchy.ruby_system.L1Cache_Controller.Ack_all::total       406451                       (Unspecified)
board.cache_hierarchy.ruby_system.L1Cache_Controller.WB_Ack |    14630648     32.41%     32.41% |     1932035      4.28%     36.68% |     1920316      4.25%     40.94% |     1792316      3.97%     44.91% |      982638      2.18%     47.08% |     1516005      3.36%     50.44% |     3449482      7.64%     58.08% |      913068      2.02%     60.10% |     2316797      5.13%     65.24% |     2564906      5.68%     70.92% |     2191882      4.85%     75.77% |      566355      1.25%     77.03% |     4690107     10.39%     87.41% |     3184947      7.05%     94.47% |     1863954      4.13%     98.60% |      633854      1.40%    100.00% (Unspecified)
board.cache_hierarchy.ruby_system.L1Cache_Controller.WB_Ack::total     45149310                       (Unspecified)
board.cache_hierarchy.ruby_system.L1Cache_Controller.NP.Load |    14671712     27.28%     27.28% |     2770994      5.15%     32.44% |     2675716      4.98%     37.41% |     2588044      4.81%     42.22% |     1098386      2.04%     44.27% |     2372746      4.41%     48.68% |     4059124      7.55%     56.23% |     1549429      2.88%     59.11% |     2538221      4.72%     63.83% |     3394213      6.31%     70.14% |     2940651      5.47%     75.61% |     1016098      1.89%     77.50% |     4394686      8.17%     85.67% |     4069277      7.57%     93.24% |     2652089      4.93%     98.17% |      984158      1.83%    100.00% (Unspecified)
board.cache_hierarchy.ruby_system.L1Cache_Controller.NP.Load::total     53775544                       (Unspecified)
board.cache_hierarchy.ruby_system.L1Cache_Controller.NP.Ifetch |     3526120      4.83%      4.83% |     5661008      7.76%     12.59% |     5343614      7.32%     19.91% |     5040787      6.91%     26.82% |     2120546      2.91%     29.73% |     5097353      6.99%     36.71% |     7018103      9.62%     46.33% |     3129000      4.29%     50.62% |     4030412      5.52%     56.14% |     6956637      9.53%     65.67% |     4570418      6.26%     71.94% |     2237139      3.07%     75.00% |     3639976      4.99%     79.99% |     6917072      9.48%     89.47% |     5952749      8.16%     97.63% |     1730162      2.37%    100.00% (Unspecified)
board.cache_hierarchy.ruby_system.L1Cache_Controller.NP.Ifetch::total     72971096                       (Unspecified)
board.cache_hierarchy.ruby_system.L1Cache_Controller.NP.Store |     2026447     15.07%     15.07% |      783195      5.82%     20.89% |      812408      6.04%     26.93% |      752091      5.59%     32.53% |      626837      4.66%     37.19% |      673741      5.01%     42.20% |     1226242      9.12%     51.32% |      392538      2.92%     54.24% |      750159      5.58%     59.81% |     1026197      7.63%     67.45% |      740202      5.50%     72.95% |      297410      2.21%     75.16% |     1190661      8.85%     84.02% |     1065439      7.92%     91.94% |      771560      5.74%     97.68% |      312605      2.32%    100.00% (Unspecified)
board.cache_hierarchy.ruby_system.L1Cache_Controller.NP.Store::total     13447732                       (Unspecified)
board.cache_hierarchy.ruby_system.L1Cache_Controller.NP.Inv |     1527533      3.49%      3.49% |     3548628      8.11%     11.60% |     3321104      7.59%     19.20% |     3150686      7.20%     26.40% |     1174313      2.68%     29.08% |     3189672      7.29%     36.38% |     4284040      9.79%     46.17% |     1868961      4.27%     50.44% |     2280311      5.21%     55.65% |     4531273     10.36%     66.01% |     2632198      6.02%     72.03% |     1289101      2.95%     74.98% |     1654695      3.78%     78.76% |     4364918      9.98%     88.74% |     4010473      9.17%     97.91% |      916074      2.09%    100.00% (Unspecified)
board.cache_hierarchy.ruby_system.L1Cache_Controller.NP.Inv::total     43743980                       (Unspecified)
board.cache_hierarchy.ruby_system.L1Cache_Controller.I.Load |     1024791      8.90%      8.90% |     1054983      9.16%     18.07% |      762435      6.62%     24.69% |      776378      6.74%     31.44% |      486279      4.22%     35.66% |      669205      5.81%     41.47% |      932270      8.10%     49.57% |      540586      4.70%     54.27% |      553087      4.80%     59.07% |      824967      7.17%     66.24% |      787970      6.85%     73.09% |      460127      4.00%     77.08% |      636479      5.53%     82.61% |      834897      7.25%     89.86% |      706484      6.14%     96.00% |      460192      4.00%    100.00% (Unspecified)
board.cache_hierarchy.ruby_system.L1Cache_Controller.I.Load::total     11511130                       (Unspecified)
board.cache_hierarchy.ruby_system.L1Cache_Controller.I.Ifetch |     1891743     13.75%     13.75% |     1375118     10.00%     23.75% |      773513      5.62%     29.37% |      783059      5.69%     35.06% |      651453      4.74%     39.80% |      682710      4.96%     44.76% |      969848      7.05%     51.81% |      614704      4.47%     56.28% |      679413      4.94%     61.21% |      778064      5.66%     66.87% |      849486      6.17%     73.04% |      579003      4.21%     77.25% |     1036671      7.54%     84.79% |      783737      5.70%     90.48% |      678488      4.93%     95.42% |      630573      4.58%    100.00% (Unspecified)
board.cache_hierarchy.ruby_system.L1Cache_Controller.I.Ifetch::total     13757583                       (Unspecified)
board.cache_hierarchy.ruby_system.L1Cache_Controller.I.Store |      172548      6.32%      6.32% |      290817     10.66%     16.98% |      180097      6.60%     23.59% |      180159      6.60%     30.19% |      121309      4.45%     34.64% |      158564      5.81%     40.45% |      207900      7.62%     48.07% |      138787      5.09%     53.16% |      137418      5.04%     58.19% |      185517      6.80%     64.99% |      183563      6.73%     71.72% |      120970      4.43%     76.16% |      155251      5.69%     81.85% |      190970      7.00%     88.85% |      170077      6.23%     95.08% |      134191      4.92%    100.00% (Unspecified)
board.cache_hierarchy.ruby_system.L1Cache_Controller.I.Store::total      2728138                       (Unspecified)
board.cache_hierarchy.ruby_system.L1Cache_Controller.I.Inv |           1      1.82%      1.82% |           2      3.64%      5.45% |           4      7.27%     12.73% |           2      3.64%     16.36% |           1      1.82%     18.18% |          10     18.18%     36.36% |           2      3.64%     40.00% |           4      7.27%     47.27% |           1      1.82%     49.09% |           7     12.73%     61.82% |           6     10.91%     72.73% |           5      9.09%     81.82% |           2      3.64%     85.45% |           1      1.82%     87.27% |           3      5.45%     92.73% |           4      7.27%    100.00% (Unspecified)
board.cache_hierarchy.ruby_system.L1Cache_Controller.I.Inv::total           55                       (Unspecified)
board.cache_hierarchy.ruby_system.L1Cache_Controller.I.L1_Replacement |     2611003      7.57%      7.57% |     2641560      7.66%     15.23% |     2448869      7.10%     22.33% |     2436126      7.06%     29.39% |     1117035      3.24%     32.63% |     2464418      7.15%     39.78% |     2921924      8.47%     48.25% |     1682621      4.88%     53.13% |     1645949      4.77%     57.90% |     2922249      8.47%     66.37% |     2441975      7.08%     73.45% |     1184418      3.43%     76.89% |     1494582      4.33%     81.22% |     3036911      8.81%     90.02% |     2416251      7.01%     97.03% |     1024687      2.97%    100.00% (Unspecified)
board.cache_hierarchy.ruby_system.L1Cache_Controller.I.L1_Replacement::total     34490578                       (Unspecified)
board.cache_hierarchy.ruby_system.L1Cache_Controller.S.Load |     2332248      3.98%      3.98% |     8039582     13.74%     17.72% |     4928500      8.42%     26.14% |     3874059      6.62%     32.76% |     2264057      3.87%     36.63% |     4069692      6.95%     43.58% |     3160021      5.40%     48.98% |     3131156      5.35%     54.33% |     2656104      4.54%     58.87% |     4792992      8.19%     67.06% |     3863164      6.60%     73.66% |     2533170      4.33%     77.98% |     1306605      2.23%     80.22% |     4715117      8.06%     88.27% |     4594004      7.85%     96.12% |     2270318      3.88%    100.00% (Unspecified)
board.cache_hierarchy.ruby_system.L1Cache_Controller.S.Load::total     58530789                       (Unspecified)
board.cache_hierarchy.ruby_system.L1Cache_Controller.S.Ifetch |   270582681     31.64%     31.64% |    43717449      5.11%     36.76% |    43067793      5.04%     41.79% |    42077892      4.92%     46.71% |    19518555      2.28%     49.00% |    35714501      4.18%     53.17% |    58224269      6.81%     59.98% |    24304878      2.84%     62.82% |    35607695      4.16%     66.99% |    50033864      5.85%     72.84% |    41779064      4.89%     77.73% |    17165767      2.01%     79.73% |    53119835      6.21%     85.95% |    58288675      6.82%     92.76% |    42526705      4.97%     97.74% |    19360043      2.26%    100.00% (Unspecified)
board.cache_hierarchy.ruby_system.L1Cache_Controller.S.Ifetch::total    855089666                       (Unspecified)
board.cache_hierarchy.ruby_system.L1Cache_Controller.S.Store |       25818      6.29%      6.29% |       66813     16.26%     22.55% |       26131      6.36%     28.91% |       32252      7.85%     36.76% |       18592      4.53%     41.29% |       25016      6.09%     47.38% |       27009      6.58%     53.95% |       22930      5.58%     59.54% |       14662      3.57%     63.10% |       33218      8.09%     71.19% |       23527      5.73%     76.92% |       18156      4.42%     81.34% |        3023      0.74%     82.07% |       31762      7.73%     89.81% |       24841      6.05%     95.85% |       17032      4.15%    100.00% (Unspecified)
board.cache_hierarchy.ruby_system.L1Cache_Controller.S.Store::total       410782                       (Unspecified)
board.cache_hierarchy.ruby_system.L1Cache_Controller.S.Inv |     2768046      8.11%      8.11% |     3176896      9.31%     17.42% |     2224839      6.52%     23.95% |     2230289      6.54%     30.48% |     1375281      4.03%     34.51% |     2201253      6.45%     40.97% |     2601856      7.63%     48.59% |     1742666      5.11%     53.70% |     1738969      5.10%     58.80% |     2481269      7.27%     66.07% |     2337337      6.85%     72.92% |     1394249      4.09%     77.01% |     1846118      5.41%     82.42% |     2533464      7.43%     89.84% |     2134912      6.26%     96.10% |     1330114      3.90%    100.00% (Unspecified)
board.cache_hierarchy.ruby_system.L1Cache_Controller.S.Inv::total     34117558                       (Unspecified)
board.cache_hierarchy.ruby_system.L1Cache_Controller.S.L1_Replacement |     2981604      4.93%      4.93% |     4640578      7.67%     12.59% |     4461529      7.37%     19.96% |     4151456      6.86%     26.82% |     1745072      2.88%     29.70% |     4162393      6.88%     36.58% |     5931039      9.80%     46.37% |     2474254      4.09%     50.46% |     3355022      5.54%     56.00% |     5888868      9.73%     65.73% |     3616390      5.97%     71.70% |     1798850      2.97%     74.68% |     3039610      5.02%     79.70% |     5828906      9.63%     89.32% |     5095169      8.42%     97.74% |     1367360      2.26%    100.00% (Unspecified)
board.cache_hierarchy.ruby_system.L1Cache_Controller.S.L1_Replacement::total     60538100                       (Unspecified)
board.cache_hierarchy.ruby_system.L1Cache_Controller.E.Load |   201408393     33.25%     33.25% |    30856599      5.09%     38.35% |    27318843      4.51%     42.86% |    28158409      4.65%     47.51% |    11502224      1.90%     49.41% |    25609333      4.23%     53.63% |    43144206      7.12%     60.76% |    18571228      3.07%     63.82% |    26592790      4.39%     68.21% |    32558100      5.38%     73.59% |    27154716      4.48%     78.07% |     9423578      1.56%     79.63% |    42530240      7.02%     86.65% |    42307240      6.99%     93.64% |    26953955      4.45%     98.09% |    11590720      1.91%    100.00% (Unspecified)
board.cache_hierarchy.ruby_system.L1Cache_Controller.E.Load::total    605680574                       (Unspecified)
board.cache_hierarchy.ruby_system.L1Cache_Controller.E.Store |      828967      8.98%      8.98% |      542422      5.87%     14.85% |      554222      6.00%     20.85% |      500272      5.42%     26.27% |      227721      2.47%     28.74% |      476890      5.16%     33.90% |      863368      9.35%     43.25% |      315125      3.41%     46.67% |      604632      6.55%     53.22% |      660789      7.16%     60.37% |      708824      7.68%     68.05% |      234533      2.54%     70.59% |     1247878     13.51%     84.10% |      702194      7.60%     91.71% |      531027      5.75%     97.46% |      234517      2.54%    100.00% (Unspecified)
board.cache_hierarchy.ruby_system.L1Cache_Controller.E.Store::total      9233381                       (Unspecified)
board.cache_hierarchy.ruby_system.L1Cache_Controller.E.Inv |     2188516     13.46%     13.46% |     1166820      7.17%     20.63% |     1072281      6.59%     27.22% |     1110490      6.83%     34.05% |      513255      3.16%     37.20% |     1001895      6.16%     43.36% |     1396188      8.58%     51.95% |      666986      4.10%     56.05% |      694444      4.27%     60.32% |     1253243      7.71%     68.02% |     1080035      6.64%     74.66% |      500504      3.08%     77.74% |      828248      5.09%     82.83% |     1310982      8.06%     90.89% |      998561      6.14%     97.03% |      482492      2.97%    100.00% (Unspecified)
board.cache_hierarchy.ruby_system.L1Cache_Controller.E.Inv::total     16264940                       (Unspecified)
board.cache_hierarchy.ruby_system.L1Cache_Controller.E.L1_Replacement |    12360678     38.79%     38.79% |     1321432      4.15%     42.94% |     1242696      3.90%     46.84% |     1194538      3.75%     50.59% |      493943      1.55%     52.14% |      981177      3.08%     55.22% |     2189525      6.87%     62.09% |      633859      1.99%     64.08% |     1409517      4.42%     68.51% |     1671737      5.25%     73.75% |     1404264      4.41%     78.16% |      362537      1.14%     79.30% |     2745907      8.62%     87.92% |     2231371      7.00%     94.92% |     1230636      3.86%     98.78% |      387843      1.22%    100.00% (Unspecified)
board.cache_hierarchy.ruby_system.L1Cache_Controller.E.L1_Replacement::total     31861660                       (Unspecified)
board.cache_hierarchy.ruby_system.L1Cache_Controller.E.Fwd_GETX |         890      3.63%      3.63% |        3145     12.84%     16.48% |        1774      7.24%     23.72% |        2045      8.35%     32.07% |         896      3.66%     35.73% |        2312      9.44%     45.17% |        1947      7.95%     53.12% |        1491      6.09%     59.21% |        1171      4.78%     63.99% |        2468     10.08%     74.07% |        1500      6.12%     80.19% |         746      3.05%     83.24% |         144      0.59%     83.83% |        1713      6.99%     90.82% |        1647      6.73%     97.55% |         601      2.45%    100.00% (Unspecified)
board.cache_hierarchy.ruby_system.L1Cache_Controller.E.Fwd_GETX::total        24490                       (Unspecified)
board.cache_hierarchy.ruby_system.L1Cache_Controller.E.Fwd_GETS |       81587      5.28%      5.28% |      136752      8.85%     14.12% |      122733      7.94%     22.06% |      115059      7.44%     29.51% |       53744      3.48%     32.98% |      126631      8.19%     41.17% |      117279      7.59%     48.76% |       85782      5.55%     54.31% |       71053      4.60%     58.91% |      147106      9.52%     68.42% |      100362      6.49%     74.91% |       54295      3.51%     78.43% |       24029      1.55%     79.98% |      138855      8.98%     88.96% |      124516      8.05%     97.02% |       46111      2.98%    100.00% (Unspecified)
board.cache_hierarchy.ruby_system.L1Cache_Controller.E.Fwd_GETS::total      1545894                       (Unspecified)
board.cache_hierarchy.ruby_system.L1Cache_Controller.E.Fwd_GET_INSTR |           1      1.04%      1.04% |           9      9.38%     10.42% |           7      7.29%     17.71% |           4      4.17%     21.88% |           6      6.25%     28.12% |          11     11.46%     39.58% |           5      5.21%     44.79% |           4      4.17%     48.96% |           6      6.25%     55.21% |           6      6.25%     61.46% |           7      7.29%     68.75% |           2      2.08%     70.83% |           2      2.08%     72.92% |           9      9.38%     82.29% |          11     11.46%     93.75% |           6      6.25%    100.00% (Unspecified)
board.cache_hierarchy.ruby_system.L1Cache_Controller.E.Fwd_GET_INSTR::total           96                       (Unspecified)
board.cache_hierarchy.ruby_system.L1Cache_Controller.M.Load |   133123141     23.10%     23.10% |    32039759      5.56%     28.66% |    32567682      5.65%     34.31% |    31814053      5.52%     39.83% |    15118985      2.62%     42.45% |    27831953      4.83%     47.28% |    45055452      7.82%     55.10% |    17193337      2.98%     58.08% |    29087937      5.05%     63.13% |    38464425      6.67%     69.80% |    32066659      5.56%     75.37% |    14334639      2.49%     77.86% |    40358334      7.00%     84.86% |    40247658      6.98%     91.84% |    32619178      5.66%     97.50% |    14401158      2.50%    100.00% (Unspecified)
board.cache_hierarchy.ruby_system.L1Cache_Controller.M.Load::total    576324350                       (Unspecified)
board.cache_hierarchy.ruby_system.L1Cache_Controller.M.Store |   197843380     26.72%     26.72% |    41754842      5.64%     32.36% |    38831555      5.24%     37.61% |    40074359      5.41%     43.02% |    21218041      2.87%     45.88% |    31596582      4.27%     50.15% |    57080198      7.71%     57.86% |    21475466      2.90%     60.76% |    33726579      4.56%     65.32% |    46489346      6.28%     71.59% |    37158401      5.02%     76.61% |    15918417      2.15%     78.76% |    50408914      6.81%     85.57% |    50920617      6.88%     92.45% |    37387812      5.05%     97.50% |    18517228      2.50%    100.00% (Unspecified)
board.cache_hierarchy.ruby_system.L1Cache_Controller.M.Store::total    740401737                       (Unspecified)
board.cache_hierarchy.ruby_system.L1Cache_Controller.M.Inv |      739117      6.19%      6.19% |     1001249      8.39%     14.58% |      855123      7.16%     21.74% |      820683      6.87%     28.61% |      479319      4.01%     32.63% |      760214      6.37%     38.99% |     1020160      8.54%     47.54% |      557133      4.67%     52.20% |      576026      4.82%     57.03% |      960382      8.04%     65.07% |      835431      7.00%     72.07% |      442207      3.70%     75.77% |      648695      5.43%     81.21% |      987426      8.27%     89.48% |      826405      6.92%     96.40% |      430152      3.60%    100.00% (Unspecified)
board.cache_hierarchy.ruby_system.L1Cache_Controller.M.Inv::total     11939722                       (Unspecified)
board.cache_hierarchy.ruby_system.L1Cache_Controller.M.L1_Replacement |     2269970     17.08%     17.08% |      610603      4.60%     21.68% |      677620      5.10%     26.78% |      597778      4.50%     31.28% |      488695      3.68%     34.95% |      534828      4.03%     38.98% |     1259957      9.48%     48.46% |      279209      2.10%     50.56% |      907280      6.83%     57.39% |      893169      6.72%     64.11% |      787618      5.93%     70.04% |      203818      1.53%     71.57% |     1944200     14.63%     86.21% |      953576      7.18%     93.38% |      633318      4.77%     98.15% |      246011      1.85%    100.00% (Unspecified)
board.cache_hierarchy.ruby_system.L1Cache_Controller.M.L1_Replacement::total     13287650                       (Unspecified)
board.cache_hierarchy.ruby_system.L1Cache_Controller.M.Fwd_GETX |        4361      2.89%      2.89% |       14914      9.89%     12.78% |       11002      7.30%     20.08% |       12913      8.56%     28.64% |        8113      5.38%     34.02% |       10014      6.64%     40.66% |       12513      8.30%     48.95% |        9236      6.12%     55.08% |        5994      3.97%     59.05% |       14182      9.40%     68.46% |        8923      5.92%     74.37% |        7605      5.04%     79.42% |         551      0.37%     79.78% |       13645      9.05%     88.83% |        9812      6.51%     95.34% |        7035      4.66%    100.00% (Unspecified)
board.cache_hierarchy.ruby_system.L1Cache_Controller.M.Fwd_GETX::total       150813                       (Unspecified)
board.cache_hierarchy.ruby_system.L1Cache_Controller.M.Fwd_GETS |       40327      9.14%      9.14% |       56479     12.80%     21.94% |       29086      6.59%     28.53% |       33400      7.57%     36.10% |       18331      4.15%     40.25% |       29155      6.61%     46.86% |       31889      7.23%     54.08% |       23802      5.39%     59.48% |       17560      3.98%     63.46% |       37986      8.61%     72.07% |       24015      5.44%     77.51% |       17435      3.95%     81.46% |        3364      0.76%     82.22% |       35711      8.09%     90.31% |       27612      6.26%     96.57% |       15130      3.43%    100.00% (Unspecified)
board.cache_hierarchy.ruby_system.L1Cache_Controller.M.Fwd_GETS::total       441282                       (Unspecified)
board.cache_hierarchy.ruby_system.L1Cache_Controller.IS.Inv |          41      1.59%      1.59% |         337     13.04%     14.63% |         633     24.50%     39.13% |         202      7.82%     46.94% |          91      3.52%     50.46% |         112      4.33%     54.80% |         176      6.81%     61.61% |          87      3.37%     64.98% |          74      2.86%     67.84% |         130      5.03%     72.87% |          98      3.79%     76.66% |          98      3.79%     80.46% |          87      3.37%     83.82% |         181      7.00%     90.83% |         118      4.57%     95.39% |         119      4.61%    100.00% (Unspecified)
board.cache_hierarchy.ruby_system.L1Cache_Controller.IS.Inv::total         2584                       (Unspecified)
board.cache_hierarchy.ruby_system.L1Cache_Controller.IS.L1_Replacement |         804      8.30%      8.30% |         722      7.46%     15.76% |         585      6.04%     21.81% |         656      6.78%     28.58% |         347      3.58%     32.17% |         476      4.92%     37.08% |         882      9.11%     46.19% |         334      3.45%     49.64% |         518      5.35%     54.99% |         675      6.97%     61.97% |         671      6.93%     68.90% |         332      3.43%     72.33% |        1038     10.72%     83.05% |         759      7.84%     90.89% |         564      5.83%     96.72% |         318      3.28%    100.00% (Unspecified)
board.cache_hierarchy.ruby_system.L1Cache_Controller.IS.L1_Replacement::total         9681                       (Unspecified)
board.cache_hierarchy.ruby_system.L1Cache_Controller.IS.Data_Exclusive |    15460638     26.24%     26.24% |     3170575      5.38%     31.62% |     2993726      5.08%     36.70% |     2922400      4.96%     41.65% |     1289566      2.19%     43.84% |     2588909      4.39%     48.24% |     4568311      7.75%     55.99% |     1703243      2.89%     58.88% |     2780853      4.72%     63.60% |     3735348      6.34%     69.94% |     3295358      5.59%     75.53% |     1152619      1.96%     77.48% |     4846223      8.22%     85.71% |     4385119      7.44%     93.15% |     2886519      4.90%     98.05% |     1151580      1.95%    100.00% (Unspecified)
board.cache_hierarchy.ruby_system.L1Cache_Controller.IS.Data_Exclusive::total     58930987                       (Unspecified)
board.cache_hierarchy.ruby_system.L1Cache_Controller.IS.DataS_fromL1 |       66351      3.34%      3.34% |      354049     17.81%     21.15% |      142683      7.18%     28.33% |      134626      6.77%     35.11% |       64811      3.26%     38.37% |      147803      7.44%     45.81% |      129535      6.52%     52.32% |      105774      5.32%     57.65% |       82335      4.14%     61.79% |      160226      8.06%     69.85% |      124677      6.27%     76.12% |       72398      3.64%     79.77% |       29581      1.49%     81.26% |      159143      8.01%     89.26% |      149896      7.54%     96.81% |       63482      3.19%    100.00% (Unspecified)
board.cache_hierarchy.ruby_system.L1Cache_Controller.IS.DataS_fromL1::total      1987370                       (Unspecified)
board.cache_hierarchy.ruby_system.L1Cache_Controller.IS.Data_all_Acks |     5587336      6.13%      6.13% |     7337142      8.05%     14.19% |     6418236      7.05%     21.23% |     6131040      6.73%     27.96% |     3002196      3.30%     31.26% |     6085190      6.68%     37.94% |     8281323      9.09%     47.03% |     4024615      4.42%     51.45% |     4937871      5.42%     56.87% |     8058177      8.85%     65.72% |     5728390      6.29%     72.00% |     3067252      3.37%     75.37% |     4831921      5.30%     80.68% |     8060540      8.85%     89.52% |     6953275      7.63%     97.16% |     2589904      2.84%    100.00% (Unspecified)
board.cache_hierarchy.ruby_system.L1Cache_Controller.IS.Data_all_Acks::total     91094408                       (Unspecified)
board.cache_hierarchy.ruby_system.L1Cache_Controller.IM.Inv |           0      0.00%      0.00% |           0      0.00%      0.00% |           0      0.00%      0.00% |           1      4.35%      4.35% |           1      4.35%      8.70% |           0      0.00%      8.70% |           1      4.35%     13.04% |           0      0.00%     13.04% |           3     13.04%     26.09% |           9     39.13%     65.22% |           0      0.00%     65.22% |           7     30.43%     95.65% |           0      0.00%     95.65% |           0      0.00%     95.65% |           0      0.00%     95.65% |           1      4.35%    100.00% (Unspecified)
board.cache_hierarchy.ruby_system.L1Cache_Controller.IM.Inv::total           23                       (Unspecified)
board.cache_hierarchy.ruby_system.L1Cache_Controller.IM.L1_Replacement |          68      4.46%      4.46% |          98      6.42%     10.88% |         114      7.47%     18.35% |          93      6.09%     24.44% |          57      3.74%     28.18% |          84      5.50%     33.68% |         140      9.17%     42.86% |          64      4.19%     47.05% |          74      4.85%     51.90% |          97      6.36%     58.26% |         111      7.27%     65.53% |          61      4.00%     69.53% |         179     11.73%     81.26% |         125      8.19%     89.45% |          95      6.23%     95.67% |          66      4.33%    100.00% (Unspecified)
board.cache_hierarchy.ruby_system.L1Cache_Controller.IM.L1_Replacement::total         1526                       (Unspecified)
board.cache_hierarchy.ruby_system.L1Cache_Controller.IM.Data |        2517     22.43%     22.43% |         742      6.61%     29.05% |         721      6.43%     35.47% |         722      6.43%     41.91% |         527      4.70%     46.60% |         550      4.90%     51.51% |         539      4.80%     56.31% |         593      5.29%     61.60% |         328      2.92%     64.52% |         649      5.78%     70.30% |         581      5.18%     75.48% |         678      6.04%     81.52% |         175      1.56%     83.08% |         750      6.68%     89.77% |         559      4.98%     94.75% |         589      5.25%    100.00% (Unspecified)
board.cache_hierarchy.ruby_system.L1Cache_Controller.IM.Data::total        11220                       (Unspecified)
board.cache_hierarchy.ruby_system.L1Cache_Controller.IM.Data_all_Acks |     2196753     13.58%     13.58% |     1074463      6.64%     20.22% |      992813      6.14%     26.35% |      933260      5.77%     32.12% |      748763      4.63%     36.75% |      832426      5.14%     41.89% |     1434520      8.87%     50.76% |      531910      3.29%     54.05% |      887880      5.49%     59.53% |     1212010      7.49%     67.03% |      924208      5.71%     72.74% |      419298      2.59%     75.33% |     1345758      8.32%     83.65% |     1257020      7.77%     91.41% |      941873      5.82%     97.24% |      447246      2.76%    100.00% (Unspecified)
board.cache_hierarchy.ruby_system.L1Cache_Controller.IM.Data_all_Acks::total     16180201                       (Unspecified)
board.cache_hierarchy.ruby_system.L1Cache_Controller.IM.Ack |           0      0.00%      0.00% |           0      0.00%      0.00% |           2     33.33%     33.33% |           0      0.00%     33.33% |           0      0.00%     33.33% |           1     16.67%     50.00% |           0      0.00%     50.00% |           3     50.00%    100.00% |           0      0.00%    100.00% |           0      0.00%    100.00% |           0      0.00%    100.00% |           0      0.00%    100.00% |           0      0.00%    100.00% |           0      0.00%    100.00% |           0      0.00%    100.00% |           0      0.00%    100.00% (Unspecified)
board.cache_hierarchy.ruby_system.L1Cache_Controller.IM.Ack::total            6                       (Unspecified)
board.cache_hierarchy.ruby_system.L1Cache_Controller.SM.Inv |         275      1.77%      1.77% |        1193      7.67%      9.44% |        1029      6.62%     16.06% |        1732     11.14%     27.19% |        1144      7.36%     34.55% |         671      4.31%     38.87% |         917      5.90%     44.76% |        1178      7.58%     52.34% |         631      4.06%     56.40% |         945      6.08%     62.47% |        1024      6.58%     69.06% |        1596     10.26%     79.32% |          21      0.14%     79.45% |        1361      8.75%     88.21% |         795      5.11%     93.32% |        1039      6.68%    100.00% (Unspecified)
board.cache_hierarchy.ruby_system.L1Cache_Controller.SM.Inv::total        15551                       (Unspecified)
board.cache_hierarchy.ruby_system.L1Cache_Controller.SM.Ack |       46460      9.63%      9.63% |       72509     15.04%     24.67% |       32885      6.82%     31.49% |       37165      7.71%     39.20% |       23485      4.87%     44.07% |       28544      5.92%     49.99% |       29686      6.16%     56.14% |       25321      5.25%     61.40% |       16153      3.35%     64.75% |       35549      7.37%     72.12% |       26146      5.42%     77.54% |       22291      4.62%     82.16% |        4240      0.88%     83.04% |       34342      7.12%     90.16% |       27578      5.72%     95.88% |       19856      4.12%    100.00% (Unspecified)
board.cache_hierarchy.ruby_system.L1Cache_Controller.SM.Ack::total       482210                       (Unspecified)
board.cache_hierarchy.ruby_system.L1Cache_Controller.SM.Ack_all |       28060      6.90%      6.90% |       66362     16.33%     23.23% |       25823      6.35%     29.58% |       31242      7.69%     37.27% |       17975      4.42%     41.69% |       24895      6.12%     47.82% |       26631      6.55%     54.37% |       22345      5.50%     59.87% |       14359      3.53%     63.40% |       32922      8.10%     71.50% |       23084      5.68%     77.18% |       17238      4.24%     81.42% |        3177      0.78%     82.20% |       31151      7.66%     89.87% |       24605      6.05%     95.92% |       16582      4.08%    100.00% (Unspecified)
board.cache_hierarchy.ruby_system.L1Cache_Controller.SM.Ack_all::total       406451                       (Unspecified)
board.cache_hierarchy.ruby_system.L1Cache_Controller.IS_I.Data_Exclusive |           3      2.94%      2.94% |           9      8.82%     11.76% |           5      4.90%     16.67% |           9      8.82%     25.49% |           4      3.92%     29.41% |           7      6.86%     36.27% |           2      1.96%     38.24% |           6      5.88%     44.12% |           8      7.84%     51.96% |           4      3.92%     55.88% |          12     11.76%     67.65% |           4      3.92%     71.57% |           1      0.98%     72.55% |          16     15.69%     88.24% |           6      5.88%     94.12% |           6      5.88%    100.00% (Unspecified)
board.cache_hierarchy.ruby_system.L1Cache_Controller.IS_I.Data_Exclusive::total          102                       (Unspecified)
board.cache_hierarchy.ruby_system.L1Cache_Controller.IS_I.DataS_fromL1 |           0      0.00%      0.00% |           0      0.00%      0.00% |           0      0.00%      0.00% |           0      0.00%      0.00% |           1     16.67%     16.67% |           0      0.00%     16.67% |           1     16.67%     33.33% |           0      0.00%     33.33% |           0      0.00%     33.33% |           4     66.67%    100.00% |           0      0.00%    100.00% |           0      0.00%    100.00% |           0      0.00%    100.00% |           0      0.00%    100.00% |           0      0.00%    100.00% |           0      0.00%    100.00% (Unspecified)
board.cache_hierarchy.ruby_system.L1Cache_Controller.IS_I.DataS_fromL1::total            6                       (Unspecified)
board.cache_hierarchy.ruby_system.L1Cache_Controller.IS_I.Data_all_Acks |          38      1.53%      1.53% |         328     13.25%     14.78% |         628     25.36%     40.15% |         193      7.79%     47.94% |          86      3.47%     51.41% |         105      4.24%     55.65% |         173      6.99%     62.64% |          81      3.27%     65.91% |          66      2.67%     68.58% |         122      4.93%     73.51% |          86      3.47%     76.98% |          94      3.80%     80.78% |          86      3.47%     84.25% |         165      6.66%     90.91% |         112      4.52%     95.44% |         113      4.56%    100.00% (Unspecified)
board.cache_hierarchy.ruby_system.L1Cache_Controller.IS_I.Data_all_Acks::total         2476                       (Unspecified)
board.cache_hierarchy.ruby_system.L1Cache_Controller.M_I.Load |        1673     16.46%     16.46% |         344      3.38%     19.85% |         421      4.14%     23.99% |         396      3.90%     27.89% |         187      1.84%     29.73% |         278      2.74%     32.46% |         868      8.54%     41.00% |         158      1.55%     42.56% |         851      8.37%     50.93% |         653      6.43%     57.36% |         643      6.33%     63.68% |          95      0.93%     64.62% |        2113     20.79%     85.41% |         967      9.51%     94.92% |         322      3.17%     98.09% |         194      1.91%    100.00% (Unspecified)
board.cache_hierarchy.ruby_system.L1Cache_Controller.M_I.Load::total        10163                       (Unspecified)
board.cache_hierarchy.ruby_system.L1Cache_Controller.M_I.Ifetch |         247     15.46%     15.46% |          24      1.50%     16.96% |          84      5.26%     22.22% |          10      0.63%     22.84% |           6      0.38%     23.22% |         134      8.39%     31.60% |         143      8.95%     40.55% |          68      4.26%     44.81% |         180     11.26%     56.07% |          29      1.81%     57.88% |          95      5.94%     63.83% |          24      1.50%     65.33% |         380     23.78%     89.11% |          71      4.44%     93.55% |          99      6.20%     99.75% |           4      0.25%    100.00% (Unspecified)
board.cache_hierarchy.ruby_system.L1Cache_Controller.M_I.Ifetch::total         1598                       (Unspecified)
board.cache_hierarchy.ruby_system.L1Cache_Controller.M_I.Store |          92      7.30%      7.30% |          44      3.49%     10.79% |          43      3.41%     14.21% |          27      2.14%     16.35% |          29      2.30%     18.65% |          49      3.89%     22.54% |         198     15.71%     38.25% |          18      1.43%     39.68% |         144     11.43%     51.11% |          44      3.49%     54.60% |          87      6.90%     61.51% |          16      1.27%     62.78% |         334     26.51%     89.29% |          83      6.59%     95.87% |          38      3.02%     98.89% |          14      1.11%    100.00% (Unspecified)
board.cache_hierarchy.ruby_system.L1Cache_Controller.M_I.Store::total         1260                       (Unspecified)
board.cache_hierarchy.ruby_system.L1Cache_Controller.M_I.Inv |         328      6.48%      6.48% |         337      6.66%     13.15% |         401      7.93%     21.08% |         382      7.55%     28.63% |         140      2.77%     31.40% |         335      6.62%     38.02% |         384      7.59%     45.61% |         237      4.69%     50.30% |         239      4.73%     55.02% |         388      7.67%     62.69% |         364      7.20%     69.89% |         243      4.80%     74.69% |         204      4.03%     78.73% |         537     10.62%     89.34% |         376      7.43%     96.78% |         163      3.22%    100.00% (Unspecified)
board.cache_hierarchy.ruby_system.L1Cache_Controller.M_I.Inv::total         5058                       (Unspecified)
board.cache_hierarchy.ruby_system.L1Cache_Controller.M_I.Fwd_GETX |           0      0.00%      0.00% |           1     50.00%     50.00% |           0      0.00%     50.00% |           0      0.00%     50.00% |           0      0.00%     50.00% |           0      0.00%     50.00% |           0      0.00%     50.00% |           0      0.00%     50.00% |           0      0.00%     50.00% |           1     50.00%    100.00% |           0      0.00%    100.00% |           0      0.00%    100.00% |           0      0.00%    100.00% |           0      0.00%    100.00% |           0      0.00%    100.00% |           0      0.00%    100.00% (Unspecified)
board.cache_hierarchy.ruby_system.L1Cache_Controller.M_I.Fwd_GETX::total            2                       (Unspecified)
board.cache_hierarchy.ruby_system.L1Cache_Controller.M_I.Fwd_GETS |           3      2.97%      2.97% |           5      4.95%      7.92% |           4      3.96%     11.88% |           4      3.96%     15.84% |           4      3.96%     19.80% |           9      8.91%     28.71% |           6      5.94%     34.65% |           3      2.97%     37.62% |           8      7.92%     45.54% |          13     12.87%     58.42% |           5      4.95%     63.37% |           3      2.97%     66.34% |           3      2.97%     69.31% |          11     10.89%     80.20% |          13     12.87%     93.07% |           7      6.93%    100.00% (Unspecified)
board.cache_hierarchy.ruby_system.L1Cache_Controller.M_I.Fwd_GETS::total          101                       (Unspecified)
board.cache_hierarchy.ruby_system.L1Cache_Controller.M_I.Fwd_GET_INSTR |           0      0.00%      0.00% |           0      0.00%      0.00% |           0      0.00%      0.00% |           0      0.00%      0.00% |           0      0.00%      0.00% |           1     33.33%     33.33% |           0      0.00%     33.33% |           0      0.00%     33.33% |           0      0.00%     33.33% |           0      0.00%     33.33% |           0      0.00%     33.33% |           1     33.33%     66.67% |           0      0.00%     66.67% |           0      0.00%     66.67% |           1     33.33%    100.00% |           0      0.00%    100.00% (Unspecified)
board.cache_hierarchy.ruby_system.L1Cache_Controller.M_I.Fwd_GET_INSTR::total            3                       (Unspecified)
board.cache_hierarchy.ruby_system.L1Cache_Controller.M_I.WB_Ack |    14630317     32.41%     32.41% |     1931692      4.28%     36.69% |     1919911      4.25%     40.94% |     1791930      3.97%     44.91% |      982494      2.18%     47.09% |     1515660      3.36%     50.44% |     3449092      7.64%     58.08% |      912828      2.02%     60.11% |     2316550      5.13%     65.24% |     2564504      5.68%     70.92% |     2191513      4.85%     75.77% |      566108      1.25%     77.03% |     4689900     10.39%     87.41% |     3184399      7.05%     94.47% |     1863564      4.13%     98.60% |      633684      1.40%    100.00% (Unspecified)
board.cache_hierarchy.ruby_system.L1Cache_Controller.M_I.WB_Ack::total     45144146                       (Unspecified)
board.cache_hierarchy.ruby_system.L1Cache_Controller.SINK_WB_ACK.Load |           0      0.00%      0.00% |           0      0.00%      0.00% |           0      0.00%      0.00% |           0      0.00%      0.00% |           0      0.00%      0.00% |           0      0.00%      0.00% |           0      0.00%      0.00% |           0      0.00%      0.00% |           0      0.00%      0.00% |           0      0.00%      0.00% |           1     50.00%     50.00% |           0      0.00%     50.00% |           1     50.00%    100.00% |           0      0.00%    100.00% |           0      0.00%    100.00% |           0      0.00%    100.00% (Unspecified)
board.cache_hierarchy.ruby_system.L1Cache_Controller.SINK_WB_ACK.Load::total            2                       (Unspecified)
board.cache_hierarchy.ruby_system.L1Cache_Controller.SINK_WB_ACK.Store |           0      0.00%      0.00% |           0      0.00%      0.00% |           0      0.00%      0.00% |           0      0.00%      0.00% |           0      0.00%      0.00% |           0      0.00%      0.00% |           0      0.00%      0.00% |           0      0.00%      0.00% |           0      0.00%      0.00% |           0      0.00%      0.00% |           0      0.00%      0.00% |           0      0.00%      0.00% |           0      0.00%      0.00% |           0      0.00%      0.00% |           0      0.00%      0.00% |           1    100.00%    100.00% (Unspecified)
board.cache_hierarchy.ruby_system.L1Cache_Controller.SINK_WB_ACK.Store::total            1                       (Unspecified)
board.cache_hierarchy.ruby_system.L1Cache_Controller.SINK_WB_ACK.WB_Ack |         331      6.41%      6.41% |         343      6.64%     13.05% |         405      7.84%     20.89% |         386      7.47%     28.37% |         144      2.79%     31.16% |         345      6.68%     37.84% |         390      7.55%     45.39% |         240      4.65%     50.04% |         247      4.78%     54.82% |         402      7.78%     62.61% |         369      7.15%     69.75% |         247      4.78%     74.54% |         207      4.01%     78.54% |         548     10.61%     89.16% |         390      7.55%     96.71% |         170      3.29%    100.00% (Unspecified)
board.cache_hierarchy.ruby_system.L1Cache_Controller.SINK_WB_ACK.WB_Ack::total         5164                       (Unspecified)
board.cache_hierarchy.ruby_system.L2Cache_Controller.L1_GET_INSTR     86757803      0.00%      0.00% (Unspecified)
board.cache_hierarchy.ruby_system.L2Cache_Controller.L1_GETS     65427079      0.00%      0.00% (Unspecified)
board.cache_hierarchy.ruby_system.L2Cache_Controller.L1_GETX     16278680      0.00%      0.00% (Unspecified)
board.cache_hierarchy.ruby_system.L2Cache_Controller.L1_UPGRADE       413631      0.00%      0.00% (Unspecified)
board.cache_hierarchy.ruby_system.L2Cache_Controller.L1_PUTX     45144350      0.00%      0.00% (Unspecified)
board.cache_hierarchy.ruby_system.L2Cache_Controller.L1_PUTX_old         9894      0.00%      0.00% (Unspecified)
board.cache_hierarchy.ruby_system.L2Cache_Controller.L2_Replacement     11624899      0.00%      0.00% (Unspecified)
board.cache_hierarchy.ruby_system.L2Cache_Controller.L2_Replacement_clean    101320718      0.00%      0.00% (Unspecified)
board.cache_hierarchy.ruby_system.L2Cache_Controller.Mem_Data    112956838      0.00%      0.00% (Unspecified)
board.cache_hierarchy.ruby_system.L2Cache_Controller.Mem_Ack    112952745      0.00%      0.00% (Unspecified)
board.cache_hierarchy.ruby_system.L2Cache_Controller.WB_Data     12383024      0.00%      0.00% (Unspecified)
board.cache_hierarchy.ruby_system.L2Cache_Controller.WB_Data_clean      1549132      0.00%      0.00% (Unspecified)
board.cache_hierarchy.ruby_system.L2Cache_Controller.Ack     25850041      0.00%      0.00% (Unspecified)
board.cache_hierarchy.ruby_system.L2Cache_Controller.Ack_all     67801214      0.00%      0.00% (Unspecified)
board.cache_hierarchy.ruby_system.L2Cache_Controller.Unblock      1987376      0.00%      0.00% (Unspecified)
board.cache_hierarchy.ruby_system.L2Cache_Controller.Exclusive_Unblock     75517741      0.00%      0.00% (Unspecified)
board.cache_hierarchy.ruby_system.L2Cache_Controller.MEM_Inv        14282      0.00%      0.00% (Unspecified)
board.cache_hierarchy.ruby_system.L2Cache_Controller.NP.L1_GET_INSTR     49555204      0.00%      0.00% (Unspecified)
board.cache_hierarchy.ruby_system.L2Cache_Controller.NP.L1_GETS     48650640      0.00%      0.00% (Unspecified)
board.cache_hierarchy.ruby_system.L2Cache_Controller.NP.L1_GETX     14750998      0.00%      0.00% (Unspecified)
board.cache_hierarchy.ruby_system.L2Cache_Controller.NP.L1_PUTX_old         4851      0.00%      0.00% (Unspecified)
board.cache_hierarchy.ruby_system.L2Cache_Controller.SS.L1_GET_INSTR     34710221      0.00%      0.00% (Unspecified)
board.cache_hierarchy.ruby_system.L2Cache_Controller.SS.L1_GETS      3386438      0.00%      0.00% (Unspecified)
board.cache_hierarchy.ruby_system.L2Cache_Controller.SS.L1_GETX        11229      0.00%      0.00% (Unspecified)
board.cache_hierarchy.ruby_system.L2Cache_Controller.SS.L1_UPGRADE       395231      0.00%      0.00% (Unspecified)
board.cache_hierarchy.ruby_system.L2Cache_Controller.SS.L1_PUTX          104      0.00%      0.00% (Unspecified)
board.cache_hierarchy.ruby_system.L2Cache_Controller.SS.L2_Replacement       126085      0.00%      0.00% (Unspecified)
board.cache_hierarchy.ruby_system.L2Cache_Controller.SS.L2_Replacement_clean     51410189      0.00%      0.00% (Unspecified)
board.cache_hierarchy.ruby_system.L2Cache_Controller.M.L1_GET_INSTR         1945      0.00%      0.00% (Unspecified)
board.cache_hierarchy.ruby_system.L2Cache_Controller.M.L1_GETS     10679441      0.00%      0.00% (Unspecified)
board.cache_hierarchy.ruby_system.L2Cache_Controller.M.L1_GETX      1253889      0.00%      0.00% (Unspecified)
board.cache_hierarchy.ruby_system.L2Cache_Controller.M.L2_Replacement     10749982      0.00%      0.00% (Unspecified)
board.cache_hierarchy.ruby_system.L2Cache_Controller.M.L2_Replacement_clean     22454316      0.00%      0.00% (Unspecified)
board.cache_hierarchy.ruby_system.L2Cache_Controller.M.MEM_Inv         2454      0.00%      0.00% (Unspecified)
board.cache_hierarchy.ruby_system.L2Cache_Controller.MT.L1_GET_INSTR           99      0.00%      0.00% (Unspecified)
board.cache_hierarchy.ruby_system.L2Cache_Controller.MT.L1_GETS      1987277      0.00%      0.00% (Unspecified)
board.cache_hierarchy.ruby_system.L2Cache_Controller.MT.L1_GETX       175305      0.00%      0.00% (Unspecified)
board.cache_hierarchy.ruby_system.L2Cache_Controller.MT.L1_PUTX     45144146      0.00%      0.00% (Unspecified)
board.cache_hierarchy.ruby_system.L2Cache_Controller.MT.L1_PUTX_old            2      0.00%      0.00% (Unspecified)
board.cache_hierarchy.ruby_system.L2Cache_Controller.MT.L2_Replacement       748832      0.00%      0.00% (Unspecified)
board.cache_hierarchy.ruby_system.L2Cache_Controller.MT.L2_Replacement_clean     27456201      0.00%      0.00% (Unspecified)
board.cache_hierarchy.ruby_system.L2Cache_Controller.MT.MEM_Inv         4687      0.00%      0.00% (Unspecified)
board.cache_hierarchy.ruby_system.L2Cache_Controller.M_I.L1_GET_INSTR        27695      0.00%      0.00% (Unspecified)
board.cache_hierarchy.ruby_system.L2Cache_Controller.M_I.L1_GETS        58168      0.00%      0.00% (Unspecified)
board.cache_hierarchy.ruby_system.L2Cache_Controller.M_I.L1_GETX        26951      0.00%      0.00% (Unspecified)
board.cache_hierarchy.ruby_system.L2Cache_Controller.M_I.L1_PUTX_old          207      0.00%      0.00% (Unspecified)
board.cache_hierarchy.ruby_system.L2Cache_Controller.M_I.Mem_Ack    112952745      0.00%      0.00% (Unspecified)
board.cache_hierarchy.ruby_system.L2Cache_Controller.M_I.MEM_Inv         2454      0.00%      0.00% (Unspecified)
board.cache_hierarchy.ruby_system.L2Cache_Controller.MT_I.L1_GETS            3      0.00%      0.00% (Unspecified)
board.cache_hierarchy.ruby_system.L2Cache_Controller.MT_I.L1_GETX            2      0.00%      0.00% (Unspecified)
board.cache_hierarchy.ruby_system.L2Cache_Controller.MT_I.L1_PUTX_old          175      0.00%      0.00% (Unspecified)
board.cache_hierarchy.ruby_system.L2Cache_Controller.MT_I.WB_Data       611598      0.00%      0.00% (Unspecified)
board.cache_hierarchy.ruby_system.L2Cache_Controller.MT_I.WB_Data_clean           51      0.00%      0.00% (Unspecified)
board.cache_hierarchy.ruby_system.L2Cache_Controller.MT_I.Ack_all       141870      0.00%      0.00% (Unspecified)
board.cache_hierarchy.ruby_system.L2Cache_Controller.MT_I.MEM_Inv         4687      0.00%      0.00% (Unspecified)
board.cache_hierarchy.ruby_system.L2Cache_Controller.MCT_I.L1_GETS          212      0.00%      0.00% (Unspecified)
board.cache_hierarchy.ruby_system.L2Cache_Controller.MCT_I.L1_GETX           15      0.00%      0.00% (Unspecified)
board.cache_hierarchy.ruby_system.L2Cache_Controller.MCT_I.L1_PUTX_old         4659      0.00%      0.00% (Unspecified)
board.cache_hierarchy.ruby_system.L2Cache_Controller.MCT_I.WB_Data     11330134      0.00%      0.00% (Unspecified)
board.cache_hierarchy.ruby_system.L2Cache_Controller.MCT_I.WB_Data_clean         2997      0.00%      0.00% (Unspecified)
board.cache_hierarchy.ruby_system.L2Cache_Controller.MCT_I.Ack_all     16123070      0.00%      0.00% (Unspecified)
board.cache_hierarchy.ruby_system.L2Cache_Controller.I_I.L1_GET_INSTR         1416      0.00%      0.00% (Unspecified)
board.cache_hierarchy.ruby_system.L2Cache_Controller.I_I.L1_GETS          202      0.00%      0.00% (Unspecified)
board.cache_hierarchy.ruby_system.L2Cache_Controller.I_I.Ack     25536594      0.00%      0.00% (Unspecified)
board.cache_hierarchy.ruby_system.L2Cache_Controller.I_I.Ack_all     51410189      0.00%      0.00% (Unspecified)
board.cache_hierarchy.ruby_system.L2Cache_Controller.S_I.L1_GETS            8      0.00%      0.00% (Unspecified)
board.cache_hierarchy.ruby_system.L2Cache_Controller.S_I.L1_GETX            4      0.00%      0.00% (Unspecified)
board.cache_hierarchy.ruby_system.L2Cache_Controller.S_I.Ack       313447      0.00%      0.00% (Unspecified)
board.cache_hierarchy.ruby_system.L2Cache_Controller.S_I.Ack_all       126085      0.00%      0.00% (Unspecified)
board.cache_hierarchy.ruby_system.L2Cache_Controller.ISS.L1_GETS       398989      0.00%      0.00% (Unspecified)
board.cache_hierarchy.ruby_system.L2Cache_Controller.ISS.L1_GETX          289      0.00%      0.00% (Unspecified)
board.cache_hierarchy.ruby_system.L2Cache_Controller.ISS.L2_Replacement_clean           11      0.00%      0.00% (Unspecified)
board.cache_hierarchy.ruby_system.L2Cache_Controller.ISS.Mem_Data     48251648      0.00%      0.00% (Unspecified)
board.cache_hierarchy.ruby_system.L2Cache_Controller.IS.L1_GET_INSTR      2461210      0.00%      0.00% (Unspecified)
board.cache_hierarchy.ruby_system.L2Cache_Controller.IS.L1_GETS       183889      0.00%      0.00% (Unspecified)
board.cache_hierarchy.ruby_system.L2Cache_Controller.IS.L1_GETX            3      0.00%      0.00% (Unspecified)
board.cache_hierarchy.ruby_system.L2Cache_Controller.IS.Mem_Data     49954192      0.00%      0.00% (Unspecified)
board.cache_hierarchy.ruby_system.L2Cache_Controller.IM.L1_GETS          221      0.00%      0.00% (Unspecified)
board.cache_hierarchy.ruby_system.L2Cache_Controller.IM.L1_GETX         2019      0.00%      0.00% (Unspecified)
board.cache_hierarchy.ruby_system.L2Cache_Controller.IM.Mem_Data     14750998      0.00%      0.00% (Unspecified)
board.cache_hierarchy.ruby_system.L2Cache_Controller.SS_MB.L1_GETS        25560      0.00%      0.00% (Unspecified)
board.cache_hierarchy.ruby_system.L2Cache_Controller.SS_MB.L1_GETX         7796      0.00%      0.00% (Unspecified)
board.cache_hierarchy.ruby_system.L2Cache_Controller.SS_MB.L1_UPGRADE        15523      0.00%      0.00% (Unspecified)
board.cache_hierarchy.ruby_system.L2Cache_Controller.SS_MB.Exclusive_Unblock       406460      0.00%      0.00% (Unspecified)
board.cache_hierarchy.ruby_system.L2Cache_Controller.MT_MB.L1_GET_INSTR            3      0.00%      0.00% (Unspecified)
board.cache_hierarchy.ruby_system.L2Cache_Controller.MT_MB.L1_GETS        18139      0.00%      0.00% (Unspecified)
board.cache_hierarchy.ruby_system.L2Cache_Controller.MT_MB.L1_GETX        44786      0.00%      0.00% (Unspecified)
board.cache_hierarchy.ruby_system.L2Cache_Controller.MT_MB.L1_PUTX            2      0.00%      0.00% (Unspecified)
board.cache_hierarchy.ruby_system.L2Cache_Controller.MT_MB.L2_Replacement_clean            1      0.00%      0.00% (Unspecified)
[...]
board.processor.cores4.core.mmu.dtb.rdMisses            0                       # TLB misses on read requests (Count)
board.processor.cores4.core.mmu.dtb.wrMisses            0                       # TLB misses on write requests (Count)
board.processor.cores4.core.mmu.dtb.walker.power_state.pwrStateResidencyTicks::UNDEFINED 28541964522277                       # Cumulative time (in ticks) in various power states (Tick)
board.processor.cores4.core.mmu.itb.rdAccesses            0                       # TLB accesses on read requests (Count)
board.processor.cores4.core.mmu.itb.wrAccesses            0                       # TLB accesses on write requests (Count)
board.processor.cores4.core.mmu.itb.rdMisses            0                       # TLB misses on read requests (Count)
board.processor.cores4.core.mmu.itb.wrMisses            0                       # TLB misses on write requests (Count)
board.processor.cores4.core.mmu.itb.walker.power_state.pwrStateResidencyTicks::UNDEFINED 28541964522277                       # Cumulative time (in ticks) in various power states (Tick)
board.processor.cores4.core.power_state.pwrStateResidencyTicks::OFF 2340127996200                       # Cumulative time (in ticks) in various power states (Tick)
board.processor.cores4.core.thread_0.numInsts            0                       # Number of Instructions committed (Count)
board.processor.cores4.core.thread_0.numOps            0                       # Number of Ops committed (Count)
board.processor.cores4.core.thread_0.numMemRefs            0                       # Number of Memory References (Count)
board.processor.cores5.core.numCycles               0                       # Number of cpu cycles simulated (Cycle)
board.processor.cores5.core.numWorkItemsStarted            0                       # Number of work items this cpu started (Count)
board.processor.cores5.core.numWorkItemsCompleted            0                       # Number of work items this cpu completed (Count)
board.processor.cores5.core.committedInsts            0                       # Number of instructions committed (Count)
board.processor.cores5.core.numVMExits              0                       # total number of KVM exits (Count)
board.processor.cores5.core.numVMHalfEntries            0                       # number of KVM entries to finalize pending operations (Count)
board.processor.cores5.core.numExitSignal            0                       # exits due to signal delivery (Count)
board.processor.cores5.core.numMMIO                 0                       # number of VM exits due to memory mapped IO (Count)
board.processor.cores5.core.numCoalescedMMIO            0                       # number of coalesced memory mapped IO requests (Count)
board.processor.cores5.core.numIO                   0                       # number of VM exits due to legacy IO (Count)
board.processor.cores5.core.numHalt                 0                       # number of VM exits due to wait for interrupt instructions (Count)
board.processor.cores5.core.numInterrupts            0                       # number of interrupts delivered (Count)
board.processor.cores5.core.numHypercalls            0                       # number of hypercalls (Count)
board.processor.cores5.core.interrupts.clk_domain.clock         5328                       # Clock period in ticks (Tick)
board.processor.cores5.core.mmu.dtb.rdAccesses            0                       # TLB accesses on read requests (Count)
board.processor.cores5.core.mmu.dtb.wrAccesses            0                       # TLB accesses on write requests (Count)
board.processor.cores5.core.mmu.dtb.rdMisses            0                       # TLB misses on read requests (Count)
board.processor.cores5.core.mmu.dtb.wrMisses            0                       # TLB misses on write requests (Count)
board.processor.cores5.core.mmu.dtb.walker.power_state.pwrStateResidencyTicks::UNDEFINED 28541964522277                       # Cumulative time (in ticks) in various power states (Tick)
board.processor.cores5.core.mmu.itb.rdAccesses            0                       # TLB accesses on read requests (Count)
board.processor.cores5.core.mmu.itb.wrAccesses            0                       # TLB accesses on write requests (Count)
board.processor.cores5.core.mmu.itb.rdMisses            0                       # TLB misses on read requests (Count)
board.processor.cores5.core.mmu.itb.wrMisses            0                       # TLB misses on write requests (Count)
board.processor.cores5.core.mmu.itb.walker.power_state.pwrStateResidencyTicks::UNDEFINED 28541964522277                       # Cumulative time (in ticks) in various power states (Tick)
board.processor.cores5.core.power_state.pwrStateResidencyTicks::OFF 2340127996200                       # Cumulative time (in ticks) in various power states (Tick)
board.processor.cores5.core.thread_0.numInsts            0                       # Number of Instructions committed (Count)
board.processor.cores5.core.thread_0.numOps            0                       # Number of Ops committed (Count)
board.processor.cores5.core.thread_0.numMemRefs            0                       # Number of Memory References (Count)
board.processor.cores6.core.numCycles               0                       # Number of cpu cycles simulated (Cycle)
board.processor.cores6.core.numWorkItemsStarted            0                       # Number of work items this cpu started (Count)
board.processor.cores6.core.numWorkItemsCompleted            0                       # Number of work items this cpu completed (Count)
board.processor.cores6.core.committedInsts            0                       # Number of instructions committed (Count)
board.processor.cores6.core.numVMExits              0                       # total number of KVM exits (Count)
board.processor.cores6.core.numVMHalfEntries            0                       # number of KVM entries to finalize pending operations (Count)
board.processor.cores6.core.numExitSignal            0                       # exits due to signal delivery (Count)
board.processor.cores6.core.numMMIO                 0                       # number of VM exits due to memory mapped IO (Count)
board.processor.cores6.core.numCoalescedMMIO            0                       # number of coalesced memory mapped IO requests (Count)
board.processor.cores6.core.numIO                   0                       # number of VM exits due to legacy IO (Count)
board.processor.cores6.core.numHalt                 0                       # number of VM exits due to wait for interrupt instructions (Count)
board.processor.cores6.core.numInterrupts            0                       # number of interrupts delivered (Count)
board.processor.cores6.core.numHypercalls            0                       # number of hypercalls (Count)
board.processor.cores6.core.interrupts.clk_domain.clock         5328                       # Clock period in ticks (Tick)
board.processor.cores6.core.mmu.dtb.rdAccesses            0                       # TLB accesses on read requests (Count)
board.processor.cores6.core.mmu.dtb.wrAccesses            0                       # TLB accesses on write requests (Count)
board.processor.cores6.core.mmu.dtb.rdMisses            0                       # TLB misses on read requests (Count)
board.processor.cores6.core.mmu.dtb.wrMisses            0                       # TLB misses on write requests (Count)
board.processor.cores6.core.mmu.dtb.walker.power_state.pwrStateResidencyTicks::UNDEFINED 28541964522277                       # Cumulative time (in ticks) in various power states (Tick)
board.processor.cores6.core.mmu.itb.rdAccesses            0                       # TLB accesses on read requests (Count)
board.processor.cores6.core.mmu.itb.wrAccesses            0                       # TLB accesses on write requests (Count)
board.processor.cores6.core.mmu.itb.rdMisses            0                       # TLB misses on read requests (Count)
board.processor.cores6.core.mmu.itb.wrMisses            0                       # TLB misses on write requests (Count)
board.processor.cores6.core.mmu.itb.walker.power_state.pwrStateResidencyTicks::UNDEFINED 28541964522277                       # Cumulative time (in ticks) in various power states (Tick)
board.processor.cores6.core.power_state.pwrStateResidencyTicks::OFF 2340127996200                       # Cumulative time (in ticks) in various power states (Tick)
board.processor.cores6.core.thread_0.numInsts            0                       # Number of Instructions committed (Count)
board.processor.cores6.core.thread_0.numOps            0                       # Number of Ops committed (Count)
board.processor.cores6.core.thread_0.numMemRefs            0                       # Number of Memory References (Count)
board.processor.cores7.core.numCycles               0                       # Number of cpu cycles simulated (Cycle)
board.processor.cores7.core.numWorkItemsStarted            0                       # Number of work items this cpu started (Count)
board.processor.cores7.core.numWorkItemsCompleted            0                       # Number of work items this cpu completed (Count)
board.processor.cores7.core.committedInsts            0                       # Number of instructions committed (Count)
board.processor.cores7.core.numVMExits              0                       # total number of KVM exits (Count)
board.processor.cores7.core.numVMHalfEntries            0                       # number of KVM entries to finalize pending operations (Count)
board.processor.cores7.core.numExitSignal            0                       # exits due to signal delivery (Count)
board.processor.cores7.core.numMMIO                 0                       # number of VM exits due to memory mapped IO (Count)
board.processor.cores7.core.numCoalescedMMIO            0                       # number of coalesced memory mapped IO requests (Count)
board.processor.cores7.core.numIO                   0                       # number of VM exits due to legacy IO (Count)
board.processor.cores7.core.numHalt                 0                       # number of VM exits due to wait for interrupt instructions (Count)
board.processor.cores7.core.numInterrupts            0                       # number of interrupts delivered (Count)
board.processor.cores7.core.numHypercalls            0                       # number of hypercalls (Count)
board.processor.cores7.core.interrupts.clk_domain.clock         5328                       # Clock period in ticks (Tick)
board.processor.cores7.core.mmu.dtb.rdAccesses            0                       # TLB accesses on read requests (Count)
board.processor.cores7.core.mmu.dtb.wrAccesses            0                       # TLB accesses on write requests (Count)
board.processor.cores7.core.mmu.dtb.rdMisses            0                       # TLB misses on read requests (Count)
board.processor.cores7.core.mmu.dtb.wrMisses            0                       # TLB misses on write requests (Count)
board.processor.cores7.core.mmu.dtb.walker.power_state.pwrStateResidencyTicks::UNDEFINED 28541964522277                       # Cumulative time (in ticks) in various power states (Tick)
board.processor.cores7.core.mmu.itb.rdAccesses            0                       # TLB accesses on read requests (Count)
board.processor.cores7.core.mmu.itb.wrAccesses            0                       # TLB accesses on write requests (Count)
board.processor.cores7.core.mmu.itb.rdMisses            0                       # TLB misses on read requests (Count)
board.processor.cores7.core.mmu.itb.wrMisses            0                       # TLB misses on write requests (Count)
board.processor.cores7.core.mmu.itb.walker.power_state.pwrStateResidencyTicks::UNDEFINED 28541964522277                       # Cumulative time (in ticks) in various power states (Tick)
board.processor.cores7.core.power_state.pwrStateResidencyTicks::OFF 2340127996200                       # Cumulative time (in ticks) in various power states (Tick)
board.processor.cores7.core.thread_0.numInsts            0                       # Number of Instructions committed (Count)
board.processor.cores7.core.thread_0.numOps            0                       # Number of Ops committed (Count)
board.processor.cores7.core.thread_0.numMemRefs            0                       # Number of Memory References (Count)
board.processor.cores8.core.numCycles               0                       # Number of cpu cycles simulated (Cycle)
board.processor.cores8.core.numWorkItemsStarted            0                       # Number of work items this cpu started (Count)
board.processor.cores8.core.numWorkItemsCompleted            0                       # Number of work items this cpu completed (Count)
board.processor.cores8.core.committedInsts            0                       # Number of instructions committed (Count)
board.processor.cores8.core.numVMExits              0                       # total number of KVM exits (Count)
board.processor.cores8.core.numVMHalfEntries            0                       # number of KVM entries to finalize pending operations (Count)
board.processor.cores8.core.numExitSignal            0                       # exits due to signal delivery (Count)
board.processor.cores8.core.numMMIO                 0                       # number of VM exits due to memory mapped IO (Count)
board.processor.cores8.core.numCoalescedMMIO            0                       # number of coalesced memory mapped IO requests (Count)
board.processor.cores8.core.numIO                   0                       # number of VM exits due to legacy IO (Count)
board.processor.cores8.core.numHalt                 0                       # number of VM exits due to wait for interrupt instructions (Count)
board.processor.cores8.core.numInterrupts            0                       # number of interrupts delivered (Count)
board.processor.cores8.core.numHypercalls            0                       # number of hypercalls (Count)
board.processor.cores8.core.interrupts.clk_domain.clock         5328                       # Clock period in ticks (Tick)
board.processor.cores8.core.mmu.dtb.rdAccesses            0                       # TLB accesses on read requests (Count)
board.processor.cores8.core.mmu.dtb.wrAccesses            0                       # TLB accesses on write requests (Count)
board.processor.cores8.core.mmu.dtb.rdMisses            0                       # TLB misses on read requests (Count)
board.processor.cores8.core.mmu.dtb.wrMisses            0                       # TLB misses on write requests (Count)
board.processor.cores8.core.mmu.dtb.walker.power_state.pwrStateResidencyTicks::UNDEFINED 28541964522277                       # Cumulative time (in ticks) in various power states (Tick)
board.processor.cores8.core.mmu.itb.rdAccesses            0                       # TLB accesses on read requests (Count)
board.processor.cores8.core.mmu.itb.wrAccesses            0                       # TLB accesses on write requests (Count)
board.processor.cores8.core.mmu.itb.rdMisses            0                       # TLB misses on read requests (Count)
board.processor.cores8.core.mmu.itb.wrMisses            0                       # TLB misses on write requests (Count)
board.processor.cores8.core.mmu.itb.walker.power_state.pwrStateResidencyTicks::UNDEFINED 28541964522277                       # Cumulative time (in ticks) in various power states (Tick)
board.processor.cores8.core.power_state.pwrStateResidencyTicks::OFF 2340127996200                       # Cumulative time (in ticks) in various power states (Tick)
board.processor.cores8.core.thread_0.numInsts            0                       # Number of Instructions committed (Count)
board.processor.cores8.core.thread_0.numOps            0                       # Number of Ops committed (Count)
board.processor.cores8.core.thread_0.numMemRefs            0                       # Number of Memory References (Count)
board.processor.cores9.core.numCycles               0                       # Number of cpu cycles simulated (Cycle)
board.processor.cores9.core.numWorkItemsStarted            0                       # Number of work items this cpu started (Count)
board.processor.cores9.core.numWorkItemsCompleted            0                       # Number of work items this cpu completed (Count)
board.processor.cores9.core.committedInsts            0                       # Number of instructions committed (Count)
board.processor.cores9.core.numVMExits              0                       # total number of KVM exits (Count)
board.processor.cores9.core.numVMHalfEntries            0                       # number of KVM entries to finalize pending operations (Count)
board.processor.cores9.core.numExitSignal            0                       # exits due to signal delivery (Count)
board.processor.cores9.core.numMMIO                 0                       # number of VM exits due to memory mapped IO (Count)
board.processor.cores9.core.numCoalescedMMIO            0                       # number of coalesced memory mapped IO requests (Count)
board.processor.cores9.core.numIO                   0                       # number of VM exits due to legacy IO (Count)
board.processor.cores9.core.numHalt                 0                       # number of VM exits due to wait for interrupt instructions (Count)
board.processor.cores9.core.numInterrupts            0                       # number of interrupts delivered (Count)
board.processor.cores9.core.numHypercalls            0                       # number of hypercalls (Count)
board.processor.cores9.core.interrupts.clk_domain.clock         5328                       # Clock period in ticks (Tick)
board.processor.cores9.core.mmu.dtb.rdAccesses            0                       # TLB accesses on read requests (Count)
board.processor.cores9.core.mmu.dtb.wrAccesses            0                       # TLB accesses on write requests (Count)
board.processor.cores9.core.mmu.dtb.rdMisses            0                       # TLB misses on read requests (Count)
board.processor.cores9.core.mmu.dtb.wrMisses            0                       # TLB misses on write requests (Count)
board.processor.cores9.core.mmu.dtb.walker.power_state.pwrStateResidencyTicks::UNDEFINED 28541964522277                       # Cumulative time (in ticks) in various power states (Tick)
board.processor.cores9.core.mmu.itb.rdAccesses            0                       # TLB accesses on read requests (Count)
board.processor.cores9.core.mmu.itb.wrAccesses            0                       # TLB accesses on write requests (Count)
board.processor.cores9.core.mmu.itb.rdMisses            0                       # TLB misses on read requests (Count)
board.processor.cores9.core.mmu.itb.wrMisses            0                       # TLB misses on write requests (Count)
board.processor.cores9.core.mmu.itb.walker.power_state.pwrStateResidencyTicks::UNDEFINED 28541964522277                       # Cumulative time (in ticks) in various power states (Tick)
board.processor.cores9.core.power_state.pwrStateResidencyTicks::OFF 2340127996200                       # Cumulative time (in ticks) in various power states (Tick)
board.processor.cores9.core.thread_0.numInsts            0                       # Number of Instructions committed (Count)
board.processor.cores9.core.thread_0.numOps            0                       # Number of Ops committed (Count)
board.processor.cores9.core.thread_0.numMemRefs            0                       # Number of Memory References (Count)
board.workload.inst.arm                             0                       # number of arm instructions executed (Count)
board.workload.inst.quiesce                         0                       # number of quiesce instructions executed (Count)

---------- End Simulation Statistics   ----------
