
---------- Begin Simulation Statistics ----------
simSeconds                                   2.212467                       # Number of seconds simulated (Second)
simTicks                                 2212467087564                       # Number of ticks simulated (Tick)
finalTick                                26121103135282                       # Number of ticks from beginning of simulation (restored from checkpoints and never reset) (Tick)
simFreq                                  1000000000000                       # The number of ticks per simulated second ((Tick/Second))
hostSeconds                                  51054.16                       # Real time elapsed on the host (Second)
hostTickRate                                 43335688                       # The number of ticks simulated per host second (ticks/s) ((Tick/Second))
hostMemory                                   10312984                       # Number of bytes of host memory used (Byte)
simInsts                                  11159111023                       # Number of instructions simulated (Count)
simOps                                    15227062485                       # Number of ops (including micro ops) simulated (Count)
hostInstRate                                   218574                       # Simulator instruction rate (inst/s) ((Count/Second))
hostOpRate                                     298253                       # Simulator op (including micro ops) rate (op/s) ((Count/Second))
board.cache_hierarchy.ruby_system.delayHistogram::bucket_size          512                       # delay histogram for all message (Unspecified)
board.cache_hierarchy.ruby_system.delayHistogram::max_bucket         5119                       # delay histogram for all message (Unspecified)
board.cache_hierarchy.ruby_system.delayHistogram::samples    820595988                       # delay histogram for all message (Unspecified)
board.cache_hierarchy.ruby_system.delayHistogram::mean     0.529941                       # delay histogram for all message (Unspecified)
board.cache_hierarchy.ruby_system.delayHistogram::stdev     2.262963                       # delay histogram for all message (Unspecified)
board.cache_hierarchy.ruby_system.delayHistogram |   820595844    100.00%    100.00% |         113      0.00%    100.00% |          20      0.00%    100.00% |           2      0.00%    100.00% |           4      0.00%    100.00% |           1      0.00%    100.00% |           2      0.00%    100.00% |           0      0.00%    100.00% |           1      0.00%    100.00% |           1      0.00%    100.00% # delay histogram for all message (Unspecified)
board.cache_hierarchy.ruby_system.delayHistogram::total    820595988                       # delay histogram for all message (Unspecified)
board.cache_hierarchy.ruby_system.m_outstandReqHistSeqr::bucket_size            2                       (Unspecified)
board.cache_hierarchy.ruby_system.m_outstandReqHistSeqr::max_bucket           19                       (Unspecified)
board.cache_hierarchy.ruby_system.m_outstandReqHistSeqr::samples   2659840259                       (Unspecified)
board.cache_hierarchy.ruby_system.m_outstandReqHistSeqr::mean     2.060663                       (Unspecified)
board.cache_hierarchy.ruby_system.m_outstandReqHistSeqr::gmean     1.727075                       (Unspecified)
board.cache_hierarchy.ruby_system.m_outstandReqHistSeqr::stdev     1.504656                       (Unspecified)
board.cache_hierarchy.ruby_system.m_outstandReqHistSeqr |  1166517754     43.86%     43.86% |  1198388951     45.05%     88.91% |   222752719      8.37%     97.29% |    41898443      1.58%     98.86% |    14481379      0.54%     99.41% |     6117338      0.23%     99.64% |     3965481      0.15%     99.79% |     3348215      0.13%     99.91% |     2369979      0.09%    100.00% |           0      0.00%    100.00% (Unspecified)
board.cache_hierarchy.ruby_system.m_outstandReqHistSeqr::total   2659840259                       (Unspecified)
board.cache_hierarchy.ruby_system.m_latencyHistSeqr::bucket_size         4096                       (Unspecified)
board.cache_hierarchy.ruby_system.m_latencyHistSeqr::max_bucket        40959                       (Unspecified)
board.cache_hierarchy.ruby_system.m_latencyHistSeqr::samples   2671680861                       (Unspecified)
board.cache_hierarchy.ruby_system.m_latencyHistSeqr::mean    11.261425                       (Unspecified)
board.cache_hierarchy.ruby_system.m_latencyHistSeqr::gmean     1.293133                       (Unspecified)
board.cache_hierarchy.ruby_system.m_latencyHistSeqr::stdev    57.093088                       (Unspecified)
board.cache_hierarchy.ruby_system.m_latencyHistSeqr |  2671678486    100.00%    100.00% |        1890      0.00%    100.00% |         393      0.00%    100.00% |          59      0.00%    100.00% |          31      0.00%    100.00% |           2      0.00%    100.00% |           0      0.00%    100.00% |           0      0.00%    100.00% |           0      0.00%    100.00% |           0      0.00%    100.00% (Unspecified)
board.cache_hierarchy.ruby_system.m_latencyHistSeqr::total   2671680861                       (Unspecified)
board.cache_hierarchy.ruby_system.m_hitLatencyHistSeqr::bucket_size         1024                       (Unspecified)
board.cache_hierarchy.ruby_system.m_hitLatencyHistSeqr::max_bucket        10239                       (Unspecified)
board.cache_hierarchy.ruby_system.m_hitLatencyHistSeqr::samples   2526934406                       (Unspecified)
board.cache_hierarchy.ruby_system.m_hitLatencyHistSeqr::mean     1.043609                       (Unspecified)
board.cache_hierarchy.ruby_system.m_hitLatencyHistSeqr::gmean     1.004906                       (Unspecified)
board.cache_hierarchy.ruby_system.m_hitLatencyHistSeqr::stdev     3.510289                       (Unspecified)
board.cache_hierarchy.ruby_system.m_hitLatencyHistSeqr |  2526932063    100.00%    100.00% |        2290      0.00%    100.00% |          32      0.00%    100.00% |          10      0.00%    100.00% |           3      0.00%    100.00% |           4      0.00%    100.00% |           2      0.00%    100.00% |           1      0.00%    100.00% |           1      0.00%    100.00% |           0      0.00%    100.00% (Unspecified)
board.cache_hierarchy.ruby_system.m_hitLatencyHistSeqr::total   2526934406                       (Unspecified)
board.cache_hierarchy.ruby_system.m_missLatencyHistSeqr::bucket_size         4096                       (Unspecified)
board.cache_hierarchy.ruby_system.m_missLatencyHistSeqr::max_bucket        40959                       (Unspecified)
board.cache_hierarchy.ruby_system.m_missLatencyHistSeqr::samples    144746455                       (Unspecified)
board.cache_hierarchy.ruby_system.m_missLatencyHistSeqr::mean   189.640596                       (Unspecified)
board.cache_hierarchy.ruby_system.m_missLatencyHistSeqr::gmean   105.575498                       (Unspecified)
board.cache_hierarchy.ruby_system.m_missLatencyHistSeqr::stdev   162.197658                       (Unspecified)
board.cache_hierarchy.ruby_system.m_missLatencyHistSeqr |   144744091    100.00%    100.00% |        1880      0.00%    100.00% |         392      0.00%    100.00% |          59      0.00%    100.00% |          31      0.00%    100.00% |           2      0.00%    100.00% |           0      0.00%    100.00% |           0      0.00%    100.00% |           0      0.00%    100.00% |           0      0.00%    100.00% (Unspecified)
board.cache_hierarchy.ruby_system.m_missLatencyHistSeqr::total    144746455                       (Unspecified)
board.cache_hierarchy.ruby_system.delayVCHist.vnet_0::bucket_size          512                       # delay histogram for vnet_0 (Unspecified)
board.cache_hierarchy.ruby_system.delayVCHist.vnet_0::max_bucket         5119                       # delay histogram for vnet_0 (Unspecified)
board.cache_hierarchy.ruby_system.delayVCHist.vnet_0::samples    256523849                       # delay histogram for vnet_0 (Unspecified)
board.cache_hierarchy.ruby_system.delayVCHist.vnet_0::mean     1.133775                       # delay histogram for vnet_0 (Unspecified)
board.cache_hierarchy.ruby_system.delayVCHist.vnet_0::stdev     3.497744                       # delay histogram for vnet_0 (Unspecified)
board.cache_hierarchy.ruby_system.delayVCHist.vnet_0 |   256523705    100.00%    100.00% |         113      0.00%    100.00% |          20      0.00%    100.00% |           2      0.00%    100.00% |           4      0.00%    100.00% |           1      0.00%    100.00% |           2      0.00%    100.00% |           0      0.00%    100.00% |           1      0.00%    100.00% |           1      0.00%    100.00% # delay histogram for vnet_0 (Unspecified)
board.cache_hierarchy.ruby_system.delayVCHist.vnet_0::total    256523849                       # delay histogram for vnet_0 (Unspecified)
board.cache_hierarchy.ruby_system.delayVCHist.vnet_1::bucket_size           16                       # delay histogram for vnet_1 (Unspecified)
board.cache_hierarchy.ruby_system.delayVCHist.vnet_1::max_bucket          159                       # delay histogram for vnet_1 (Unspecified)
board.cache_hierarchy.ruby_system.delayVCHist.vnet_1::samples    477008959                       # delay histogram for vnet_1 (Unspecified)
board.cache_hierarchy.ruby_system.delayVCHist.vnet_1::mean     0.301875                       # delay histogram for vnet_1 (Unspecified)
board.cache_hierarchy.ruby_system.delayVCHist.vnet_1::stdev     1.389587                       # delay histogram for vnet_1 (Unspecified)
board.cache_hierarchy.ruby_system.delayVCHist.vnet_1 |   476629675     99.92%     99.92% |      367717      0.08%    100.00% |       10753      0.00%    100.00% |         726      0.00%    100.00% |          75      0.00%    100.00% |          12      0.00%    100.00% |           1      0.00%    100.00% |           0      0.00%    100.00% |           0      0.00%    100.00% |           0      0.00%    100.00% # delay histogram for vnet_1 (Unspecified)
board.cache_hierarchy.ruby_system.delayVCHist.vnet_1::total    477008959                       # delay histogram for vnet_1 (Unspecified)
board.cache_hierarchy.ruby_system.delayVCHist.vnet_2::bucket_size            1                       # delay histogram for vnet_2 (Unspecified)
board.cache_hierarchy.ruby_system.delayVCHist.vnet_2::max_bucket            9                       # delay histogram for vnet_2 (Unspecified)
board.cache_hierarchy.ruby_system.delayVCHist.vnet_2::samples     87063180                       # delay histogram for vnet_2 (Unspecified)
board.cache_hierarchy.ruby_system.delayVCHist.vnet_2::mean     0.000345                       # delay histogram for vnet_2 (Unspecified)
board.cache_hierarchy.ruby_system.delayVCHist.vnet_2::stdev     0.026358                       # delay histogram for vnet_2 (Unspecified)
board.cache_hierarchy.ruby_system.delayVCHist.vnet_2 |    87048203     99.98%     99.98% |           0      0.00%     99.98% |       14928      0.02%    100.00% |           0      0.00%    100.00% |          49      0.00%    100.00% |           0      0.00%    100.00% |           0      0.00%    100.00% |           0      0.00%    100.00% |           0      0.00%    100.00% |           0      0.00%    100.00% # delay histogram for vnet_2 (Unspecified)
board.cache_hierarchy.ruby_system.delayVCHist.vnet_2::total     87063180                       # delay histogram for vnet_2 (Unspecified)
board.cache_hierarchy.ruby_system.Directory_Controller.Fetch    100631613      0.00%      0.00% (Unspecified)
board.cache_hierarchy.ruby_system.Directory_Controller.Data     19338851      0.00%      0.00% (Unspecified)
board.cache_hierarchy.ruby_system.Directory_Controller.Memory_Data    100904714      0.00%      0.00% (Unspecified)
board.cache_hierarchy.ruby_system.Directory_Controller.Memory_Ack     20935969      0.00%      0.00% (Unspecified)
board.cache_hierarchy.ruby_system.Directory_Controller.DMA_READ       282150      0.00%      0.00% (Unspecified)
board.cache_hierarchy.ruby_system.Directory_Controller.DMA_WRITE      1597120      0.00%      0.00% (Unspecified)
board.cache_hierarchy.ruby_system.Directory_Controller.CleanReplacement     81288666      0.00%      0.00% (Unspecified)
board.cache_hierarchy.ruby_system.Directory_Controller.I.Fetch    100631613      0.00%      0.00% (Unspecified)
board.cache_hierarchy.ruby_system.Directory_Controller.I.DMA_READ       273104      0.00%      0.00% (Unspecified)
board.cache_hierarchy.ruby_system.Directory_Controller.I.DMA_WRITE      1597118      0.00%      0.00% (Unspecified)
board.cache_hierarchy.ruby_system.Directory_Controller.ID.Memory_Data       273104      0.00%      0.00% (Unspecified)
board.cache_hierarchy.ruby_system.Directory_Controller.ID_W.Memory_Ack      1597118      0.00%      0.00% (Unspecified)
board.cache_hierarchy.ruby_system.Directory_Controller.M.Data     19329803      0.00%      0.00% (Unspecified)
board.cache_hierarchy.ruby_system.Directory_Controller.M.DMA_READ         9046      0.00%      0.00% (Unspecified)
board.cache_hierarchy.ruby_system.Directory_Controller.M.DMA_WRITE            2      0.00%      0.00% (Unspecified)
board.cache_hierarchy.ruby_system.Directory_Controller.M.CleanReplacement     81288666      0.00%      0.00% (Unspecified)
board.cache_hierarchy.ruby_system.Directory_Controller.IM.Memory_Data    100631610      0.00%      0.00% (Unspecified)
board.cache_hierarchy.ruby_system.Directory_Controller.MI.Memory_Ack     19329803      0.00%      0.00% (Unspecified)
board.cache_hierarchy.ruby_system.Directory_Controller.M_DRD.Data         9046      0.00%      0.00% (Unspecified)
board.cache_hierarchy.ruby_system.Directory_Controller.M_DRDI.Memory_Ack         9046      0.00%      0.00% (Unspecified)
board.cache_hierarchy.ruby_system.Directory_Controller.M_DWR.Data            2      0.00%      0.00% (Unspecified)
board.cache_hierarchy.ruby_system.Directory_Controller.M_DWRI.Memory_Ack            2      0.00%      0.00% (Unspecified)
board.cache_hierarchy.ruby_system.DMA_Controller.ReadRequest |      282150    100.00%    100.00% |           0      0.00%    100.00% (Unspecified)
board.cache_hierarchy.ruby_system.DMA_Controller.ReadRequest::total       282150                       (Unspecified)
board.cache_hierarchy.ruby_system.DMA_Controller.WriteRequest |     1597120    100.00%    100.00% |           0      0.00%    100.00% (Unspecified)
board.cache_hierarchy.ruby_system.DMA_Controller.WriteRequest::total      1597120                       (Unspecified)
board.cache_hierarchy.ruby_system.DMA_Controller.Data |      282150    100.00%    100.00% |           0      0.00%    100.00% (Unspecified)
board.cache_hierarchy.ruby_system.DMA_Controller.Data::total       282150                       (Unspecified)
board.cache_hierarchy.ruby_system.DMA_Controller.Ack |     1597120    100.00%    100.00% |           0      0.00%    100.00% (Unspecified)
board.cache_hierarchy.ruby_system.DMA_Controller.Ack::total      1597120                       (Unspecified)
board.cache_hierarchy.ruby_system.DMA_Controller.READY.ReadRequest |      282150    100.00%    100.00% |           0      0.00%    100.00% (Unspecified)
board.cache_hierarchy.ruby_system.DMA_Controller.READY.ReadRequest::total       282150                       (Unspecified)
board.cache_hierarchy.ruby_system.DMA_Controller.READY.WriteRequest |     1597120    100.00%    100.00% |           0      0.00%    100.00% (Unspecified)
board.cache_hierarchy.ruby_system.DMA_Controller.READY.WriteRequest::total      1597120                       (Unspecified)
board.cache_hierarchy.ruby_system.DMA_Controller.BUSY_RD.Data |      282150    100.00%    100.00% |           0      0.00%    100.00% (Unspecified)
board.cache_hierarchy.ruby_system.DMA_Controller.BUSY_RD.Data::total       282150                       (Unspecified)
board.cache_hierarchy.ruby_system.DMA_Controller.BUSY_WR.Ack |     1597120    100.00%    100.00% |           0      0.00%    100.00% (Unspecified)
board.cache_hierarchy.ruby_system.DMA_Controller.BUSY_WR.Ack::total      1597120                       (Unspecified)
board.cache_hierarchy.ruby_system.L1Cache_Controller.Load |   140269310     12.12%     12.12% |   133642324     11.55%     23.67% |   158722274     13.72%     37.39% |   225071530     19.45%     56.83% |    77079459      6.66%     63.50% |   117500211     10.15%     73.65% |   198480166     17.15%     90.80% |   106454370      9.20%    100.00% (Unspecified)
board.cache_hierarchy.ruby_system.L1Cache_Controller.Load::total   1157219644                       (Unspecified)
board.cache_hierarchy.ruby_system.L1Cache_Controller.Ifetch |   108112661     12.94%     12.94% |    94716870     11.34%     24.29% |   110681567     13.25%     37.54% |   161922052     19.39%     56.93% |    50882485      6.09%     63.02% |    84061024     10.07%     73.08% |   149573244     17.91%     90.99% |    75231139      9.01%    100.00% (Unspecified)
board.cache_hierarchy.ruby_system.L1Cache_Controller.Ifetch::total    835181042                       (Unspecified)
board.cache_hierarchy.ruby_system.L1Cache_Controller.Store |    84001472     12.34%     12.34% |    79560508     11.68%     24.02% |    86630780     12.72%     36.74% |   131784934     19.35%     56.09% |    42958813      6.31%     62.40% |    71386326     10.48%     72.89% |   119402662     17.53%     90.42% |    65239651      9.58%    100.00% (Unspecified)
board.cache_hierarchy.ruby_system.L1Cache_Controller.Store::total    680965146                       (Unspecified)
board.cache_hierarchy.ruby_system.L1Cache_Controller.Inv |    11521607     13.50%     13.50% |    13556603     15.89%     29.39% |     8928506     10.47%     39.86% |    11221830     13.15%     53.01% |     4285003      5.02%     58.03% |    10005953     11.73%     69.76% |    13836847     16.22%     85.98% |    11960880     14.02%    100.00% (Unspecified)
board.cache_hierarchy.ruby_system.L1Cache_Controller.Inv::total     85317229                       (Unspecified)
board.cache_hierarchy.ruby_system.L1Cache_Controller.L1_Replacement |    16261302     12.73%     12.73% |    17589493     13.76%     26.49% |    16354295     12.80%     39.29% |    18224591     14.26%     53.55% |     6770517      5.30%     58.85% |    14887141     11.65%     70.50% |    22501218     17.61%     88.10% |    15201393     11.90%    100.00% (Unspecified)
board.cache_hierarchy.ruby_system.L1Cache_Controller.L1_Replacement::total    127789950                       (Unspecified)
board.cache_hierarchy.ruby_system.L1Cache_Controller.Fwd_GETX |       13862     12.38%     12.38% |       18514     16.54%     28.92% |       11522     10.29%     39.22% |       13563     12.12%     51.34% |        4275      3.82%     55.15% |       17454     15.59%     70.75% |       17759     15.87%     86.61% |       14984     13.39%    100.00% (Unspecified)
board.cache_hierarchy.ruby_system.L1Cache_Controller.Fwd_GETX::total       111933                       (Unspecified)
board.cache_hierarchy.ruby_system.L1Cache_Controller.Fwd_GETS |      249194     15.25%     15.25% |      276601     16.93%     32.18% |      156982      9.61%     41.79% |      214959     13.16%     54.94% |       66062      4.04%     58.99% |      201793     12.35%     71.34% |      242244     14.83%     86.16% |      226088     13.84%    100.00% (Unspecified)
board.cache_hierarchy.ruby_system.L1Cache_Controller.Fwd_GETS::total      1633923                       (Unspecified)
board.cache_hierarchy.ruby_system.L1Cache_Controller.Fwd_GET_INSTR |          11     11.58%     11.58% |          20     21.05%     32.63% |          11     11.58%     44.21% |           8      8.42%     52.63% |           3      3.16%     55.79% |          14     14.74%     70.53% |          17     17.89%     88.42% |          11     11.58%    100.00% (Unspecified)
board.cache_hierarchy.ruby_system.L1Cache_Controller.Fwd_GET_INSTR::total           95                       (Unspecified)
board.cache_hierarchy.ruby_system.L1Cache_Controller.Data |        3044     44.15%     44.15% |         622      9.02%     53.17% |         398      5.77%     58.94% |         543      7.88%     66.82% |         359      5.21%     72.02% |         769     11.15%     83.18% |         550      7.98%     91.15% |         610      8.85%    100.00% (Unspecified)
board.cache_hierarchy.ruby_system.L1Cache_Controller.Data::total         6895                       (Unspecified)
board.cache_hierarchy.ruby_system.L1Cache_Controller.Data_Exclusive |     5782893     11.15%     11.15% |     5895500     11.37%     22.53% |     8593641     16.58%     39.10% |     9078527     17.51%     56.61% |     3493464      6.74%     63.35% |     4844477      9.34%     72.69% |     9356325     18.05%     90.74% |     4800343      9.26%    100.00% (Unspecified)
board.cache_hierarchy.ruby_system.L1Cache_Controller.Data_Exclusive::total     51845170                       (Unspecified)
board.cache_hierarchy.ruby_system.L1Cache_Controller.DataS_fromL1 |      180300     11.03%     11.03% |      420187     25.71%     36.75% |      152672      9.34%     46.09% |      201267     12.32%     58.41% |       63489      3.89%     62.30% |      184137     11.27%     73.56% |      213972     13.09%     86.66% |      217994     13.34%    100.00% (Unspecified)
board.cache_hierarchy.ruby_system.L1Cache_Controller.DataS_fromL1::total      1634018                       (Unspecified)
board.cache_hierarchy.ruby_system.L1Cache_Controller.Data_all_Acks |    12403621     13.62%     13.62% |    13890675     15.25%     28.87% |     9723687     10.68%     39.55% |    11460063     12.58%     52.13% |     4640272      5.10%     57.23% |    11706009     12.85%     70.08% |    15152689     16.64%     86.72% |    12097175     13.28%    100.00% (Unspecified)
board.cache_hierarchy.ruby_system.L1Cache_Controller.Data_all_Acks::total     91074191                       (Unspecified)
board.cache_hierarchy.ruby_system.L1Cache_Controller.Ack |       66740     20.26%     20.26% |       71263     21.64%     41.90% |       25962      7.88%     49.78% |       33065     10.04%     59.82% |       13192      4.01%     63.83% |       40397     12.27%     76.09% |       42735     12.98%     89.07% |       36008     10.93%    100.00% (Unspecified)
board.cache_hierarchy.ruby_system.L1Cache_Controller.Ack::total       329362                       (Unspecified)
board.cache_hierarchy.ruby_system.L1Cache_Controller.Ack_all |       45087     16.01%     16.01% |       66345     23.56%     39.57% |       22458      7.98%     47.55% |       30074     10.68%     58.23% |       10236      3.64%     61.87% |       37293     13.24%     75.11% |       36939     13.12%     88.23% |       33145     11.77%    100.00% (Unspecified)
board.cache_hierarchy.ruby_system.L1Cache_Controller.Ack_all::total       281577                       (Unspecified)
board.cache_hierarchy.ruby_system.L1Cache_Controller.WB_Ack |     4561848     10.38%     10.38% |     4441900     10.11%     20.48% |     7846000     17.85%     38.33% |     8026429     18.26%     56.60% |     3065122      6.97%     63.57% |     4305245      9.79%     73.36% |     8247273     18.76%     92.13% |     3460764      7.87%    100.00% (Unspecified)
board.cache_hierarchy.ruby_system.L1Cache_Controller.WB_Ack::total     43954581                       (Unspecified)
board.cache_hierarchy.ruby_system.L1Cache_Controller.NP.Load |     5379566     10.96%     10.96% |     5574613     11.35%     22.31% |     8193413     16.69%     39.00% |     8626323     17.57%     56.57% |     3243685      6.61%     63.18% |     4578783      9.33%     72.51% |     8993830     18.32%     90.83% |     4504414      9.17%    100.00% (Unspecified)
board.cache_hierarchy.ruby_system.L1Cache_Controller.NP.Load::total     49094627                       (Unspecified)
board.cache_hierarchy.ruby_system.L1Cache_Controller.NP.Ifetch |     9417943     14.20%     14.20% |    10510607     15.84%     30.04% |     6613845      9.97%     40.01% |     7511468     11.32%     51.33% |     2734103      4.12%     55.45% |     8649117     13.04%     68.48% |    11590825     17.47%     85.95% |     9318737     14.05%    100.00% (Unspecified)
board.cache_hierarchy.ruby_system.L1Cache_Controller.NP.Ifetch::total     66346645                       (Unspecified)
board.cache_hierarchy.ruby_system.L1Cache_Controller.NP.Store |     1463940     11.85%     11.85% |     1504142     12.18%     24.03% |     1546871     12.53%     36.56% |     2086859     16.90%     53.46% |      793131      6.42%     59.88% |     1659329     13.44%     73.32% |     1916451     15.52%     88.84% |     1378284     11.16%    100.00% (Unspecified)
board.cache_hierarchy.ruby_system.L1Cache_Controller.NP.Store::total     12349007                       (Unspecified)
board.cache_hierarchy.ruby_system.L1Cache_Controller.NP.Inv |     6169533     14.30%     14.30% |     6990865     16.21%     30.51% |     3983983      9.24%     39.75% |     4966705     11.52%     51.27% |     1407945      3.26%     54.53% |     5403993     12.53%     67.06% |     7779845     18.04%     85.10% |     6425722     14.90%    100.00% (Unspecified)
board.cache_hierarchy.ruby_system.L1Cache_Controller.NP.Inv::total     43128591                       (Unspecified)
board.cache_hierarchy.ruby_system.L1Cache_Controller.I.Load |      908510     12.72%     12.72% |     1127841     15.79%     28.50% |      854421     11.96%     40.46% |     1034134     14.47%     54.93% |      508714      7.12%     62.05% |      819542     11.47%     73.52% |      987910     13.83%     87.35% |      903865     12.65%    100.00% (Unspecified)
board.cache_hierarchy.ruby_system.L1Cache_Controller.I.Load::total      7144937                       (Unspecified)
board.cache_hierarchy.ruby_system.L1Cache_Controller.I.Ifetch |      986149     12.34%     12.34% |     1207529     15.11%     27.44% |     1070205     13.39%     40.83% |     1274537     15.94%     56.78% |      798804      9.99%     66.77% |      843433     10.55%     77.32% |     1014900     12.70%     90.02% |      798071      9.98%    100.00% (Unspecified)
board.cache_hierarchy.ruby_system.L1Cache_Controller.I.Ifetch::total      7993628                       (Unspecified)
board.cache_hierarchy.ruby_system.L1Cache_Controller.I.Store |      213260     13.14%     13.14% |      281391     17.33%     30.47% |      190706     11.75%     42.22% |      206109     12.70%     54.91% |      118672      7.31%     62.22% |      183672     11.31%     73.53% |      218309     13.45%     86.98% |      211361     13.02%    100.00% (Unspecified)
board.cache_hierarchy.ruby_system.L1Cache_Controller.I.Store::total      1623480                       (Unspecified)
board.cache_hierarchy.ruby_system.L1Cache_Controller.I.Inv |           4     11.11%     11.11% |           5     13.89%     25.00% |           6     16.67%     41.67% |           5     13.89%     55.56% |           2      5.56%     61.11% |           2      5.56%     66.67% |           4     11.11%     77.78% |           8     22.22%    100.00% (Unspecified)
board.cache_hierarchy.ruby_system.L1Cache_Controller.I.Inv::total           36                       (Unspecified)
board.cache_hierarchy.ruby_system.L1Cache_Controller.I.L1_Replacement |     3256023     12.76%     12.76% |     3965802     15.54%     28.30% |     2839134     11.13%     39.42% |     3751214     14.70%     54.12% |     1453471      5.70%     59.82% |     2769811     10.85%     70.67% |     3850631     15.09%     85.76% |     3633760     14.24%    100.00% (Unspecified)
board.cache_hierarchy.ruby_system.L1Cache_Controller.I.L1_Replacement::total     25519846                       (Unspecified)
board.cache_hierarchy.ruby_system.L1Cache_Controller.S.Load |     5195690     11.12%     11.12% |     8730500     18.68%     29.80% |     6595427     14.11%     43.91% |     7113735     15.22%     59.13% |     2522402      5.40%     64.53% |     5002697     10.70%     75.24% |     5865748     12.55%     87.79% |     5707375     12.21%    100.00% (Unspecified)
board.cache_hierarchy.ruby_system.L1Cache_Controller.S.Load::total     46733574                       (Unspecified)
board.cache_hierarchy.ruby_system.L1Cache_Controller.S.Ifetch |    97708206     12.84%     12.84% |    82998615     10.91%     23.75% |   102997214     13.54%     37.29% |   153135912     20.13%     57.42% |    47349394      6.22%     63.64% |    74568167      9.80%     73.44% |   136967310     18.00%     91.44% |    65114168      8.56%    100.00% (Unspecified)
board.cache_hierarchy.ruby_system.L1Cache_Controller.S.Ifetch::total    760838986                       (Unspecified)
board.cache_hierarchy.ruby_system.L1Cache_Controller.S.Store |       42533     15.05%     15.05% |       66586     23.56%     38.61% |       22998      8.14%     46.74% |       30501     10.79%     57.54% |       10352      3.66%     61.20% |       38040     13.46%     74.66% |       37700     13.34%     88.00% |       33925     12.00%    100.00% (Unspecified)
board.cache_hierarchy.ruby_system.L1Cache_Controller.S.Store::total       282635                       (Unspecified)
board.cache_hierarchy.ruby_system.L1Cache_Controller.S.Inv |     2673203     12.28%     12.28% |     3553450     16.32%     28.60% |     2602436     11.95%     40.55% |     3105376     14.26%     54.81% |     1595809      7.33%     62.14% |     2398757     11.02%     73.16% |     3033266     13.93%     87.09% |     2810814     12.91%    100.00% (Unspecified)
board.cache_hierarchy.ruby_system.L1Cache_Controller.S.Inv::total     21773111                       (Unspecified)
board.cache_hierarchy.ruby_system.L1Cache_Controller.S.L1_Replacement |     8442554     14.48%     14.48% |     9180636     15.75%     30.22% |     5667971      9.72%     39.95% |     6445983     11.06%     51.00% |     2251302      3.86%     54.86% |     7811149     13.40%     68.26% |    10402178     17.84%     86.10% |     8105887     13.90%    100.00% (Unspecified)
board.cache_hierarchy.ruby_system.L1Cache_Controller.S.L1_Replacement::total     58307660                       (Unspecified)
board.cache_hierarchy.ruby_system.L1Cache_Controller.E.Load |    62690510     11.29%     11.29% |    56859403     10.24%     21.53% |    78602823     14.15%     35.68% |   123520952     22.24%     57.92% |    42751500      7.70%     65.62% |    51337167      9.24%     74.86% |    94525555     17.02%     91.88% |    45096801      8.12%    100.00% (Unspecified)
board.cache_hierarchy.ruby_system.L1Cache_Controller.E.Load::total    555384711                       (Unspecified)
board.cache_hierarchy.ruby_system.L1Cache_Controller.E.Store |      998864     13.11%     13.11% |      964771     12.66%     25.77% |     1083329     14.22%     39.98% |      798087     10.47%     50.45% |      778213     10.21%     60.67% |      949529     12.46%     73.13% |     1198320     15.72%     88.85% |      849763     11.15%    100.00% (Unspecified)
board.cache_hierarchy.ruby_system.L1Cache_Controller.E.Store::total      7620876                       (Unspecified)
board.cache_hierarchy.ruby_system.L1Cache_Controller.E.Inv |     1530297     12.89%     12.89% |     1679570     14.15%     27.03% |     1381842     11.64%     38.67% |     2014895     16.97%     55.64% |      749746      6.31%     61.95% |     1226932     10.33%     72.29% |     1755263     14.78%     87.07% |     1535343     12.93%    100.00% (Unspecified)
board.cache_hierarchy.ruby_system.L1Cache_Controller.E.Inv::total     11873888                       (Unspecified)
board.cache_hierarchy.ruby_system.L1Cache_Controller.E.L1_Replacement |     3062538      9.87%      9.87% |     3031237      9.77%     19.64% |     5997119     19.33%     38.98% |     6087501     19.62%     58.60% |     1911894      6.16%     64.76% |     2505792      8.08%     72.84% |     6202017     19.99%     92.83% |     2223083      7.17%    100.00% (Unspecified)
board.cache_hierarchy.ruby_system.L1Cache_Controller.E.L1_Replacement::total     31021181                       (Unspecified)
board.cache_hierarchy.ruby_system.L1Cache_Controller.E.Fwd_GETX |        1949     11.58%     11.58% |        3628     21.55%     33.12% |        1689     10.03%     43.15% |        1809     10.74%     53.90% |         440      2.61%     56.51% |        2251     13.37%     69.88% |        2647     15.72%     85.60% |        2424     14.40%    100.00% (Unspecified)
board.cache_hierarchy.ruby_system.L1Cache_Controller.E.Fwd_GETX::total        16837                       (Unspecified)
board.cache_hierarchy.ruby_system.L1Cache_Controller.E.Fwd_GETS |      189232     14.42%     14.42% |      216138     16.48%     30.90% |      129403      9.86%     40.76% |      176226     13.43%     54.20% |       53166      4.05%     58.25% |      159956     12.19%     70.44% |      198051     15.10%     85.54% |      189715     14.46%    100.00% (Unspecified)
board.cache_hierarchy.ruby_system.L1Cache_Controller.E.Fwd_GETS::total      1311887                       (Unspecified)
board.cache_hierarchy.ruby_system.L1Cache_Controller.E.Fwd_GET_INSTR |          11     12.22%     12.22% |          18     20.00%     32.22% |          11     12.22%     44.44% |           8      8.89%     53.33% |           3      3.33%     56.67% |          13     14.44%     71.11% |          16     17.78%     88.89% |          10     11.11%    100.00% (Unspecified)
board.cache_hierarchy.ruby_system.L1Cache_Controller.E.Fwd_GET_INSTR::total           90                       (Unspecified)
board.cache_hierarchy.ruby_system.L1Cache_Controller.M.Load |    66094272     13.25%     13.25% |    61349215     12.30%     25.55% |    64474674     12.92%     38.47% |    84775602     16.99%     55.47% |    28052262      5.62%     61.09% |    55761074     11.18%     72.27% |    88105519     17.66%     89.93% |    50241227     10.07%    100.00% (Unspecified)
board.cache_hierarchy.ruby_system.L1Cache_Controller.M.Load::total    498853845                       (Unspecified)
board.cache_hierarchy.ruby_system.L1Cache_Controller.M.Store |    81282772     12.33%     12.33% |    76743476     11.64%     23.98% |    83786626     12.71%     36.69% |   128663326     19.52%     56.21% |    41258301      6.26%     62.47% |    68555628     10.40%     72.87% |   116031761     17.60%     90.48% |    62766262      9.52%    100.00% (Unspecified)
board.cache_hierarchy.ruby_system.L1Cache_Controller.M.Store::total    659088152                       (Unspecified)
board.cache_hierarchy.ruby_system.L1Cache_Controller.M.Inv |     1147412     13.46%     13.46% |     1330557     15.61%     29.07% |      957393     11.23%     40.30% |     1132152     13.28%     53.58% |      530410      6.22%     59.80% |      974088     11.43%     71.23% |     1266223     14.85%     86.08% |     1186725     13.92%    100.00% (Unspecified)
board.cache_hierarchy.ruby_system.L1Cache_Controller.M.Inv::total      8524960                       (Unspecified)
board.cache_hierarchy.ruby_system.L1Cache_Controller.M.L1_Replacement |     1499310     11.59%     11.59% |     1410663     10.91%     22.50% |     1848881     14.30%     36.80% |     1938928     14.99%     51.79% |     1153228      8.92%     60.70% |     1799453     13.91%     74.62% |     2045256     15.81%     90.43% |     1237681      9.57%    100.00% (Unspecified)
board.cache_hierarchy.ruby_system.L1Cache_Controller.M.L1_Replacement::total     12933400                       (Unspecified)
board.cache_hierarchy.ruby_system.L1Cache_Controller.M.Fwd_GETX |       11911     12.53%     12.53% |       14886     15.65%     28.18% |        9833     10.34%     38.52% |       11754     12.36%     50.88% |        3835      4.03%     54.91% |       15203     15.99%     70.90% |       15112     15.89%     86.79% |       12560     13.21%    100.00% (Unspecified)
board.cache_hierarchy.ruby_system.L1Cache_Controller.M.Fwd_GETX::total        95094                       (Unspecified)
board.cache_hierarchy.ruby_system.L1Cache_Controller.M.Fwd_GETS |       59953     18.62%     18.62% |       60454     18.78%     37.40% |       27571      8.56%     45.96% |       38721     12.03%     57.99% |       12891      4.00%     61.99% |       41825     12.99%     74.99% |       44176     13.72%     88.71% |       36359     11.29%    100.00% (Unspecified)
board.cache_hierarchy.ruby_system.L1Cache_Controller.M.Fwd_GETS::total       321950                       (Unspecified)
board.cache_hierarchy.ruby_system.L1Cache_Controller.IS.Inv |         110      2.88%      2.88% |         598     15.65%     18.52% |        1314     34.38%     52.90% |         974     25.48%     78.39% |         369      9.65%     88.04% |         167      4.37%     92.41% |         146      3.82%     96.23% |         144      3.77%    100.00% (Unspecified)
board.cache_hierarchy.ruby_system.L1Cache_Controller.IS.Inv::total         3822                       (Unspecified)
board.cache_hierarchy.ruby_system.L1Cache_Controller.IS.L1_Replacement |         780     11.47%     11.47% |         970     14.27%     25.74% |        1015     14.93%     40.67% |         835     12.28%     52.95% |         553      8.13%     61.08% |         817     12.02%     73.10% |         992     14.59%     87.69% |         837     12.31%    100.00% (Unspecified)
board.cache_hierarchy.ruby_system.L1Cache_Controller.IS.L1_Replacement::total         6799                       (Unspecified)
board.cache_hierarchy.ruby_system.L1Cache_Controller.IS.Data_Exclusive |     5782885     11.15%     11.15% |     5895493     11.37%     22.53% |     8593635     16.58%     39.10% |     9078515     17.51%     56.61% |     3493460      6.74%     63.35% |     4844473      9.34%     72.69% |     9356317     18.05%     90.74% |     4800334      9.26%    100.00% (Unspecified)
board.cache_hierarchy.ruby_system.L1Cache_Controller.IS.Data_Exclusive::total     51845112                       (Unspecified)
board.cache_hierarchy.ruby_system.L1Cache_Controller.IS.DataS_fromL1 |      180300     11.03%     11.03% |      420187     25.71%     36.75% |      152672      9.34%     46.09% |      201267     12.32%     58.41% |       63489      3.89%     62.30% |      184137     11.27%     73.56% |      213972     13.09%     86.66% |      217994     13.34%    100.00% (Unspecified)
board.cache_hierarchy.ruby_system.L1Cache_Controller.IS.DataS_fromL1::total      1634018                       (Unspecified)
board.cache_hierarchy.ruby_system.L1Cache_Controller.IS.Data_all_Acks |    10728873     13.92%     13.92% |    12104311     15.70%     29.62% |     7984262     10.36%     39.97% |     9165706     11.89%     51.86% |     3727988      4.84%     56.70% |     9862098     12.79%     69.49% |    13017030     16.88%     86.37% |    10506615     13.63%    100.00% (Unspecified)
board.cache_hierarchy.ruby_system.L1Cache_Controller.IS.Data_all_Acks::total     77096883                       (Unspecified)
board.cache_hierarchy.ruby_system.L1Cache_Controller.IM.Inv |           0      0.00%      0.00% |           2     40.00%     40.00% |           0      0.00%     40.00% |           0      0.00%     40.00% |           0      0.00%     40.00% |           3     60.00%    100.00% |           0      0.00%    100.00% |           0      0.00%    100.00% (Unspecified)
board.cache_hierarchy.ruby_system.L1Cache_Controller.IM.Inv::total            5                       (Unspecified)
board.cache_hierarchy.ruby_system.L1Cache_Controller.IM.L1_Replacement |          97      9.12%      9.12% |         185     17.39%     26.50% |         175     16.45%     42.95% |         130     12.22%     55.17% |          69      6.48%     61.65% |         119     11.18%     72.84% |         144     13.53%     86.37% |         145     13.63%    100.00% (Unspecified)
board.cache_hierarchy.ruby_system.L1Cache_Controller.IM.L1_Replacement::total         1064                       (Unspecified)
board.cache_hierarchy.ruby_system.L1Cache_Controller.IM.Data |        3044     44.15%     44.15% |         622      9.02%     53.17% |         398      5.77%     58.94% |         543      7.88%     66.82% |         359      5.21%     72.02% |         769     11.15%     83.18% |         550      7.98%     91.15% |         610      8.85%    100.00% (Unspecified)
board.cache_hierarchy.ruby_system.L1Cache_Controller.IM.Data::total         6895                       (Unspecified)
board.cache_hierarchy.ruby_system.L1Cache_Controller.IM.Data_all_Acks |     1674646     11.98%     11.98% |     1785773     12.78%     24.76% |     1738117     12.44%     37.20% |     2293395     16.41%     53.62% |      911919      6.53%     60.14% |     1843748     13.19%     73.34% |     2135521     15.28%     88.62% |     1590425     11.38%    100.00% (Unspecified)
board.cache_hierarchy.ruby_system.L1Cache_Controller.IM.Data_all_Acks::total     13973544                       (Unspecified)
board.cache_hierarchy.ruby_system.L1Cache_Controller.IM.Ack |           2     20.00%     20.00% |           4     40.00%     60.00% |           3     30.00%     90.00% |           1     10.00%    100.00% |           0      0.00%    100.00% |           0      0.00%    100.00% |           0      0.00%    100.00% |           0      0.00%    100.00% (Unspecified)
board.cache_hierarchy.ruby_system.L1Cache_Controller.IM.Ack::total           10                       (Unspecified)
board.cache_hierarchy.ruby_system.L1Cache_Controller.SM.Inv |         490      6.16%      6.16% |         863     10.85%     17.01% |         938     11.79%     28.81% |         970     12.20%     41.00% |         475      5.97%     46.98% |        1516     19.06%     66.04% |        1311     16.48%     82.52% |        1390     17.48%    100.00% (Unspecified)
board.cache_hierarchy.ruby_system.L1Cache_Controller.SM.Inv::total         7953                       (Unspecified)
board.cache_hierarchy.ruby_system.L1Cache_Controller.SM.Ack |       66738     20.26%     20.26% |       71259     21.64%     41.90% |       25959      7.88%     49.78% |       33064     10.04%     59.82% |       13192      4.01%     63.83% |       40397     12.27%     76.09% |       42735     12.98%     89.07% |       36008     10.93%    100.00% (Unspecified)
board.cache_hierarchy.ruby_system.L1Cache_Controller.SM.Ack::total       329352                       (Unspecified)
board.cache_hierarchy.ruby_system.L1Cache_Controller.SM.Ack_all |       45087     16.01%     16.01% |       66345     23.56%     39.57% |       22458      7.98%     47.55% |       30074     10.68%     58.23% |       10236      3.64%     61.87% |       37293     13.24%     75.11% |       36939     13.12%     88.23% |       33145     11.77%    100.00% (Unspecified)
board.cache_hierarchy.ruby_system.L1Cache_Controller.SM.Ack_all::total       281577                       (Unspecified)
board.cache_hierarchy.ruby_system.L1Cache_Controller.IS_I.Data_Exclusive |           8     13.79%     13.79% |           7     12.07%     25.86% |           6     10.34%     36.21% |          12     20.69%     56.90% |           4      6.90%     63.79% |           4      6.90%     70.69% |           8     13.79%     84.48% |           9     15.52%    100.00% (Unspecified)
board.cache_hierarchy.ruby_system.L1Cache_Controller.IS_I.Data_Exclusive::total           58                       (Unspecified)
board.cache_hierarchy.ruby_system.L1Cache_Controller.IS_I.Data_all_Acks |         102      2.71%      2.71% |         591     15.70%     18.41% |        1308     34.75%     53.16% |         962     25.56%     78.72% |         365      9.70%     88.42% |         163      4.33%     92.75% |         138      3.67%     96.41% |         135      3.59%    100.00% (Unspecified)
board.cache_hierarchy.ruby_system.L1Cache_Controller.IS_I.Data_all_Acks::total         3764                       (Unspecified)
board.cache_hierarchy.ruby_system.L1Cache_Controller.M_I.Load |         762      9.59%      9.59% |         752      9.46%     19.05% |        1516     19.08%     38.13% |         783      9.85%     47.98% |         896     11.27%     59.26% |         947     11.92%     71.17% |        1604     20.18%     91.36% |         687      8.64%    100.00% (Unspecified)
board.cache_hierarchy.ruby_system.L1Cache_Controller.M_I.Load::total         7947                       (Unspecified)
board.cache_hierarchy.ruby_system.L1Cache_Controller.M_I.Ifetch |         363     20.36%     20.36% |         119      6.67%     27.03% |         303     16.99%     44.03% |         135      7.57%     51.60% |         184     10.32%     61.92% |         307     17.22%     79.14% |         209     11.72%     90.86% |         163      9.14%    100.00% (Unspecified)
board.cache_hierarchy.ruby_system.L1Cache_Controller.M_I.Ifetch::total         1783                       (Unspecified)
board.cache_hierarchy.ruby_system.L1Cache_Controller.M_I.Store |         103     10.35%     10.35% |         142     14.27%     24.62% |         250     25.13%     49.75% |          51      5.13%     54.87% |         144     14.47%     69.35% |         128     12.86%     82.21% |         121     12.16%     94.37% |          56      5.63%    100.00% (Unspecified)
board.cache_hierarchy.ruby_system.L1Cache_Controller.M_I.Store::total          995                       (Unspecified)
board.cache_hierarchy.ruby_system.L1Cache_Controller.M_I.Inv |         558     11.47%     11.47% |         693     14.25%     25.72% |         594     12.21%     37.94% |         753     15.48%     53.42% |         247      5.08%     58.50% |         495     10.18%     68.68% |         789     16.22%     84.91% |         734     15.09%    100.00% (Unspecified)
board.cache_hierarchy.ruby_system.L1Cache_Controller.M_I.Inv::total         4863                       (Unspecified)
board.cache_hierarchy.ruby_system.L1Cache_Controller.M_I.Fwd_GETX |           2    100.00%    100.00% |           0      0.00%    100.00% |           0      0.00%    100.00% |           0      0.00%    100.00% |           0      0.00%    100.00% |           0      0.00%    100.00% |           0      0.00%    100.00% |           0      0.00%    100.00% (Unspecified)
board.cache_hierarchy.ruby_system.L1Cache_Controller.M_I.Fwd_GETX::total            2                       (Unspecified)
board.cache_hierarchy.ruby_system.L1Cache_Controller.M_I.Fwd_GETS |           9     10.47%     10.47% |           9     10.47%     20.93% |           8      9.30%     30.23% |          12     13.95%     44.19% |           5      5.81%     50.00% |          12     13.95%     63.95% |          17     19.77%     83.72% |          14     16.28%    100.00% (Unspecified)
board.cache_hierarchy.ruby_system.L1Cache_Controller.M_I.Fwd_GETS::total           86                       (Unspecified)
board.cache_hierarchy.ruby_system.L1Cache_Controller.M_I.Fwd_GET_INSTR |           0      0.00%      0.00% |           2     40.00%     40.00% |           0      0.00%     40.00% |           0      0.00%     40.00% |           0      0.00%     40.00% |           1     20.00%     60.00% |           1     20.00%     80.00% |           1     20.00%    100.00% (Unspecified)
board.cache_hierarchy.ruby_system.L1Cache_Controller.M_I.Fwd_GET_INSTR::total            5                       (Unspecified)
board.cache_hierarchy.ruby_system.L1Cache_Controller.M_I.WB_Ack |     4561279     10.38%     10.38% |     4441196     10.11%     20.48% |     7845398     17.85%     38.33% |     8025664     18.26%     56.60% |     3064870      6.97%     63.57% |     4304737      9.79%     73.36% |     8246466     18.76%     92.13% |     3460015      7.87%    100.00% (Unspecified)
board.cache_hierarchy.ruby_system.L1Cache_Controller.M_I.WB_Ack::total     43949625                       (Unspecified)
board.cache_hierarchy.ruby_system.L1Cache_Controller.SINK_WB_ACK.Load |           0      0.00%      0.00% |           0      0.00%      0.00% |           0      0.00%      0.00% |           1     33.33%     33.33% |           0      0.00%     33.33% |           1     33.33%     66.67% |           0      0.00%     66.67% |           1     33.33%    100.00% (Unspecified)
board.cache_hierarchy.ruby_system.L1Cache_Controller.SINK_WB_ACK.Load::total            3                       (Unspecified)
board.cache_hierarchy.ruby_system.L1Cache_Controller.SINK_WB_ACK.Store |           0      0.00%      0.00% |           0      0.00%      0.00% |           0      0.00%      0.00% |           1    100.00%    100.00% |           0      0.00%    100.00% |           0      0.00%    100.00% |           0      0.00%    100.00% |           0      0.00%    100.00% (Unspecified)
board.cache_hierarchy.ruby_system.L1Cache_Controller.SINK_WB_ACK.Store::total            1                       (Unspecified)
board.cache_hierarchy.ruby_system.L1Cache_Controller.SINK_WB_ACK.WB_Ack |         569     11.48%     11.48% |         704     14.21%     25.69% |         602     12.15%     37.83% |         765     15.44%     53.27% |         252      5.08%     58.35% |         508     10.25%     68.60% |         807     16.28%     84.89% |         749     15.11%    100.00% (Unspecified)
board.cache_hierarchy.ruby_system.L1Cache_Controller.SINK_WB_ACK.WB_Ack::total         4956                       (Unspecified)
board.cache_hierarchy.ruby_system.L2Cache_Controller.L1_GET_INSTR     74363626      0.00%      0.00% (Unspecified)
board.cache_hierarchy.ruby_system.L2Cache_Controller.L1_GETS     56355648      0.00%      0.00% (Unspecified)
board.cache_hierarchy.ruby_system.L2Cache_Controller.L1_GETX     14014586      0.00%      0.00% (Unspecified)
board.cache_hierarchy.ruby_system.L2Cache_Controller.L1_UPGRADE       285439      0.00%      0.00% (Unspecified)
board.cache_hierarchy.ruby_system.L2Cache_Controller.L1_PUTX     43949804      0.00%      0.00% (Unspecified)
board.cache_hierarchy.ruby_system.L2Cache_Controller.L1_PUTX_old         9567      0.00%      0.00% (Unspecified)
board.cache_hierarchy.ruby_system.L2Cache_Controller.L2_Replacement     11326441      0.00%      0.00% (Unspecified)
board.cache_hierarchy.ruby_system.L2Cache_Controller.L2_Replacement_clean     89292029      0.00%      0.00% (Unspecified)
board.cache_hierarchy.ruby_system.L2Cache_Controller.Mem_Data    100631610      0.00%      0.00% (Unspecified)
board.cache_hierarchy.ruby_system.L2Cache_Controller.Mem_Ack    100627517      0.00%      0.00% (Unspecified)
board.cache_hierarchy.ruby_system.L2Cache_Controller.WB_Data      8848916      0.00%      0.00% (Unspecified)
board.cache_hierarchy.ruby_system.L2Cache_Controller.WB_Data_clean      1314925      0.00%      0.00% (Unspecified)
board.cache_hierarchy.ruby_system.L2Cache_Controller.Ack     17037168      0.00%      0.00% (Unspecified)
board.cache_hierarchy.ruby_system.L2Cache_Controller.Ack_all     59413981      0.00%      0.00% (Unspecified)
board.cache_hierarchy.ruby_system.L2Cache_Controller.Unblock      1634018      0.00%      0.00% (Unspecified)
board.cache_hierarchy.ruby_system.L2Cache_Controller.Exclusive_Unblock     66100291      0.00%      0.00% (Unspecified)
board.cache_hierarchy.ruby_system.L2Cache_Controller.MEM_Inv        18096      0.00%      0.00% (Unspecified)
board.cache_hierarchy.ruby_system.L2Cache_Controller.NP.L1_GET_INSTR     45871069      0.00%      0.00% (Unspecified)
board.cache_hierarchy.ruby_system.L2Cache_Controller.NP.L1_GETS     42047994      0.00%      0.00% (Unspecified)
board.cache_hierarchy.ruby_system.L2Cache_Controller.NP.L1_GETX     12712550      0.00%      0.00% (Unspecified)
board.cache_hierarchy.ruby_system.L2Cache_Controller.NP.L1_PUTX_old         4710      0.00%      0.00% (Unspecified)
board.cache_hierarchy.ruby_system.L2Cache_Controller.SS.L1_GET_INSTR     26246636      0.00%      0.00% (Unspecified)
board.cache_hierarchy.ruby_system.L2Cache_Controller.SS.L1_GETS      2058148      0.00%      0.00% (Unspecified)
board.cache_hierarchy.ruby_system.L2Cache_Controller.SS.L1_GETX         6903      0.00%      0.00% (Unspecified)
board.cache_hierarchy.ruby_system.L2Cache_Controller.SS.L1_UPGRADE       274682      0.00%      0.00% (Unspecified)
board.cache_hierarchy.ruby_system.L2Cache_Controller.SS.L1_PUTX           91      0.00%      0.00% (Unspecified)
board.cache_hierarchy.ruby_system.L2Cache_Controller.SS.L2_Replacement       109612      0.00%      0.00% (Unspecified)
board.cache_hierarchy.ruby_system.L2Cache_Controller.SS.L2_Replacement_clean     47430481      0.00%      0.00% (Unspecified)
board.cache_hierarchy.ruby_system.L2Cache_Controller.M.L1_GET_INSTR         2143      0.00%      0.00% (Unspecified)
board.cache_hierarchy.ruby_system.L2Cache_Controller.M.L1_GETS     10112883      0.00%      0.00% (Unspecified)
board.cache_hierarchy.ruby_system.L2Cache_Controller.M.L1_GETX      1149054      0.00%      0.00% (Unspecified)
board.cache_hierarchy.ruby_system.L2Cache_Controller.M.L2_Replacement     10561924      0.00%      0.00% (Unspecified)
board.cache_hierarchy.ruby_system.L2Cache_Controller.M.L2_Replacement_clean     22117360      0.00%      0.00% (Unspecified)
board.cache_hierarchy.ruby_system.L2Cache_Controller.M.MEM_Inv         4429      0.00%      0.00% (Unspecified)
board.cache_hierarchy.ruby_system.L2Cache_Controller.MT.L1_GET_INSTR           95      0.00%      0.00% (Unspecified)
board.cache_hierarchy.ruby_system.L2Cache_Controller.MT.L1_GETS      1633923      0.00%      0.00% (Unspecified)
board.cache_hierarchy.ruby_system.L2Cache_Controller.MT.L1_GETX       111933      0.00%      0.00% (Unspecified)
board.cache_hierarchy.ruby_system.L2Cache_Controller.MT.L1_PUTX     43949625      0.00%      0.00% (Unspecified)
board.cache_hierarchy.ruby_system.L2Cache_Controller.MT.L1_PUTX_old            2      0.00%      0.00% (Unspecified)
board.cache_hierarchy.ruby_system.L2Cache_Controller.MT.L2_Replacement       654905      0.00%      0.00% (Unspecified)
board.cache_hierarchy.ruby_system.L2Cache_Controller.MT.L2_Replacement_clean     19744187      0.00%      0.00% (Unspecified)
board.cache_hierarchy.ruby_system.L2Cache_Controller.MT.MEM_Inv         4619      0.00%      0.00% (Unspecified)
board.cache_hierarchy.ruby_system.L2Cache_Controller.M_I.L1_GET_INSTR        22300      0.00%      0.00% (Unspecified)
board.cache_hierarchy.ruby_system.L2Cache_Controller.M_I.L1_GETS        43832      0.00%      0.00% (Unspecified)
board.cache_hierarchy.ruby_system.L2Cache_Controller.M_I.L1_GETX        22499      0.00%      0.00% (Unspecified)
board.cache_hierarchy.ruby_system.L2Cache_Controller.M_I.L1_PUTX_old          153      0.00%      0.00% (Unspecified)
board.cache_hierarchy.ruby_system.L2Cache_Controller.M_I.Mem_Ack    100627517      0.00%      0.00% (Unspecified)
board.cache_hierarchy.ruby_system.L2Cache_Controller.M_I.MEM_Inv         4429      0.00%      0.00% (Unspecified)
board.cache_hierarchy.ruby_system.L2Cache_Controller.MT_I.L1_GETS            2      0.00%      0.00% (Unspecified)
board.cache_hierarchy.ruby_system.L2Cache_Controller.MT_I.L1_PUTX_old          204      0.00%      0.00% (Unspecified)
board.cache_hierarchy.ruby_system.L2Cache_Controller.MT_I.WB_Data       523590      0.00%      0.00% (Unspecified)
board.cache_hierarchy.ruby_system.L2Cache_Controller.MT_I.WB_Data_clean           60      0.00%      0.00% (Unspecified)
board.cache_hierarchy.ruby_system.L2Cache_Controller.MT_I.Ack_all       135874      0.00%      0.00% (Unspecified)
board.cache_hierarchy.ruby_system.L2Cache_Controller.MT_I.MEM_Inv         4619      0.00%      0.00% (Unspecified)
board.cache_hierarchy.ruby_system.L2Cache_Controller.MCT_I.L1_GETS          124      0.00%      0.00% (Unspecified)
board.cache_hierarchy.ruby_system.L2Cache_Controller.MCT_I.L1_GETX           22      0.00%      0.00% (Unspecified)
board.cache_hierarchy.ruby_system.L2Cache_Controller.MCT_I.L1_PUTX_old         4498      0.00%      0.00% (Unspecified)
board.cache_hierarchy.ruby_system.L2Cache_Controller.MCT_I.WB_Data      8003362      0.00%      0.00% (Unspecified)
board.cache_hierarchy.ruby_system.L2Cache_Controller.MCT_I.WB_Data_clean         2811      0.00%      0.00% (Unspecified)
board.cache_hierarchy.ruby_system.L2Cache_Controller.MCT_I.Ack_all     11738014      0.00%      0.00% (Unspecified)
board.cache_hierarchy.ruby_system.L2Cache_Controller.I_I.L1_GET_INSTR         1049      0.00%      0.00% (Unspecified)
board.cache_hierarchy.ruby_system.L2Cache_Controller.I_I.L1_GETS           90      0.00%      0.00% (Unspecified)
board.cache_hierarchy.ruby_system.L2Cache_Controller.I_I.Ack     16856399      0.00%      0.00% (Unspecified)
board.cache_hierarchy.ruby_system.L2Cache_Controller.I_I.Ack_all     47430481      0.00%      0.00% (Unspecified)
board.cache_hierarchy.ruby_system.L2Cache_Controller.S_I.L1_GETS            4      0.00%      0.00% (Unspecified)
board.cache_hierarchy.ruby_system.L2Cache_Controller.S_I.L1_GETX            3      0.00%      0.00% (Unspecified)
board.cache_hierarchy.ruby_system.L2Cache_Controller.S_I.Ack       180769      0.00%      0.00% (Unspecified)
board.cache_hierarchy.ruby_system.L2Cache_Controller.S_I.Ack_all       109612      0.00%      0.00% (Unspecified)
board.cache_hierarchy.ruby_system.L2Cache_Controller.ISS.L1_GETS       315706      0.00%      0.00% (Unspecified)
board.cache_hierarchy.ruby_system.L2Cache_Controller.ISS.L1_GETX          112      0.00%      0.00% (Unspecified)
board.cache_hierarchy.ruby_system.L2Cache_Controller.ISS.L2_Replacement_clean            1      0.00%      0.00% (Unspecified)
board.cache_hierarchy.ruby_system.L2Cache_Controller.ISS.Mem_Data     41732287      0.00%      0.00% (Unspecified)
board.cache_hierarchy.ruby_system.L2Cache_Controller.IS.L1_GET_INSTR      2220330      0.00%      0.00% (Unspecified)
board.cache_hierarchy.ruby_system.L2Cache_Controller.IS.L1_GETS        70910      0.00%      0.00% (Unspecified)
board.cache_hierarchy.ruby_system.L2Cache_Controller.IS.L1_GETX            1      0.00%      0.00% (Unspecified)
board.cache_hierarchy.ruby_system.L2Cache_Controller.IS.Mem_Data     46186774      0.00%      0.00% (Unspecified)
board.cache_hierarchy.ruby_system.L2Cache_Controller.IM.L1_GETS           92      0.00%      0.00% (Unspecified)
board.cache_hierarchy.ruby_system.L2Cache_Controller.IM.L1_GETX         1128      0.00%      0.00% (Unspecified)
board.cache_hierarchy.ruby_system.L2Cache_Controller.IM.Mem_Data     12712549      0.00%      0.00% (Unspecified)
board.cache_hierarchy.ruby_system.L2Cache_Controller.SS_MB.L1_GETS        27147      0.00%      0.00% (Unspecified)
board.cache_hierarchy.ruby_system.L2Cache_Controller.SS_MB.L1_GETX         1895      0.00%      0.00% (Unspecified)
board.cache_hierarchy.ruby_system.L2Cache_Controller.SS_MB.L1_UPGRADE         7944      0.00%      0.00% (Unspecified)
board.cache_hierarchy.ruby_system.L2Cache_Controller.SS_MB.Exclusive_Unblock       281585      0.00%      0.00% (Unspecified)
board.cache_hierarchy.ruby_system.L2Cache_Controller.MT_MB.L1_GETS        11367      0.00%      0.00% (Unspecified)
board.cache_hierarchy.ruby_system.L2Cache_Controller.MT_MB.L1_GETX         7911      0.00%      0.00% (Unspecified)
board.cache_hierarchy.ruby_system.L2Cache_Controller.MT_MB.L1_PUTX            2      0.00%      0.00% (Unspecified)
board.cache_hierarchy.ruby_system.L2Cache_Controller.MT_MB.Exclusive_Unblock     65818706      0.00%      0.00% (Unspecified)
board.cache_hierarchy.ruby_system.L2Cache_Controller.MT_IIB.L1_GET_INSTR            4      0.00%      0.00% (Unspecified)
board.cache_hierarchy.ruby_system.L2Cache_Controller.MT_IIB.L1_GETS        32179      0.00%      0.00% (Unspecified)
board.cache_hierarchy.ruby_system.L2Cache_Controller.MT_IIB.L1_GETX          479      0.00%      0.00% (Unspecified)
board.cache_hierarchy.ruby_system.L2Cache_Controller.MT_IIB.L1_PUTX           86      0.00%      0.00% (Unspecified)
board.cache_hierarchy.ruby_system.L2Cache_Controller.MT_IIB.WB_Data       312143      0.00%      0.00% (Unspecified)
board.cache_hierarchy.ruby_system.L2Cache_Controller.MT_IIB.WB_Data_clean      1296538      0.00%      0.00% (Unspecified)
board.cache_hierarchy.ruby_system.L2Cache_Controller.MT_IIB.Unblock        25337      0.00%      0.00% (Unspecified)
board.cache_hierarchy.ruby_system.L2Cache_Controller.MT_IB.WB_Data         9821      0.00%      0.00% (Unspecified)
board.cache_hierarchy.ruby_system.L2Cache_Controller.MT_IB.WB_Data_clean        15516      0.00%      0.00% (Unspecified)
board.cache_hierarchy.ruby_system.L2Cache_Controller.MT_SB.L1_GETS         1247      0.00%      0.00% (Unspecified)
board.cache_hierarchy.ruby_system.L2Cache_Controller.MT_SB.L1_GETX           96      0.00%      0.00% (Unspecified)
board.cache_hierarchy.ruby_system.L2Cache_Controller.MT_SB.L1_UPGRADE         2813      0.00%      0.00% (Unspecified)
board.cache_hierarchy.ruby_system.L2Cache_Controller.MT_SB.Unblock      1608681      0.00%      0.00% (Unspecified)
board.cache_hierarchy.ruby_system.RequestType.LD.latency_hist_seqr::bucket_size         4096                       (Unspecified)
board.cache_hierarchy.ruby_system.RequestType.LD.latency_hist_seqr::max_bucket        40959                       (Unspecified)
board.cache_hierarchy.ruby_system.RequestType.LD.latency_hist_seqr::samples   1156608555                       (Unspecified)
board.cache_hierarchy.ruby_system.RequestType.LD.latency_hist_seqr::mean    10.929552                       (Unspecified)
board.cache_hierarchy.ruby_system.RequestType.LD.latency_hist_seqr::gmean     1.264650                       (Unspecified)
board.cache_hierarchy.ruby_system.RequestType.LD.latency_hist_seqr::stdev    56.719596                       (Unspecified)
board.cache_hierarchy.ruby_system.RequestType.LD.latency_hist_seqr |  1156607379    100.00%    100.00% |         923      0.00%    100.00% |         208      0.00%    100.00% |          27      0.00%    100.00% |          16      0.00%    100.00% |           2      0.00%    100.00% |           0      0.00%    100.00% |           0      0.00%    100.00% |           0      0.00%    100.00% |           0      0.00%    100.00% (Unspecified)
board.cache_hierarchy.ruby_system.RequestType.LD.latency_hist_seqr::total   1156608555                       (Unspecified)
board.cache_hierarchy.ruby_system.RequestType.LD.hit_latency_hist_seqr::bucket_size            1                       (Unspecified)
board.cache_hierarchy.ruby_system.RequestType.LD.hit_latency_hist_seqr::max_bucket            9                       (Unspecified)
board.cache_hierarchy.ruby_system.RequestType.LD.hit_latency_hist_seqr::samples   1100399024                       (Unspecified)
board.cache_hierarchy.ruby_system.RequestType.LD.hit_latency_hist_seqr::mean     1.000953                       (Unspecified)
board.cache_hierarchy.ruby_system.RequestType.LD.hit_latency_hist_seqr::gmean     1.000661                       (Unspecified)
board.cache_hierarchy.ruby_system.RequestType.LD.hit_latency_hist_seqr::stdev     0.030866                       (Unspecified)
board.cache_hierarchy.ruby_system.RequestType.LD.hit_latency_hist_seqr |           0      0.00%      0.00% |  1099350736     99.90%     99.90% |     1047930      0.10%    100.00% |         355      0.00%    100.00% |           3      0.00%    100.00% |           0      0.00%    100.00% |           0      0.00%    100.00% |           0      0.00%    100.00% |           0      0.00%    100.00% |           0      0.00%    100.00% (Unspecified)
board.cache_hierarchy.ruby_system.RequestType.LD.hit_latency_hist_seqr::total   1100399024                       (Unspecified)
board.cache_hierarchy.ruby_system.RequestType.LD.miss_latency_hist_seqr::bucket_size         4096                       (Unspecified)
board.cache_hierarchy.ruby_system.RequestType.LD.miss_latency_hist_seqr::max_bucket        40959                       (Unspecified)
board.cache_hierarchy.ruby_system.RequestType.LD.miss_latency_hist_seqr::samples     56209531                       (Unspecified)
board.cache_hierarchy.ruby_system.RequestType.LD.miss_latency_hist_seqr::mean   205.299094                       (Unspecified)
board.cache_hierarchy.ruby_system.RequestType.LD.miss_latency_hist_seqr::gmean   123.765680                       (Unspecified)
board.cache_hierarchy.ruby_system.RequestType.LD.miss_latency_hist_seqr::stdev   162.752311                       (Unspecified)
board.cache_hierarchy.ruby_system.RequestType.LD.miss_latency_hist_seqr |    56208355    100.00%    100.00% |         923      0.00%    100.00% |         208      0.00%    100.00% |          27      0.00%    100.00% |          16      0.00%    100.00% |           2      0.00%    100.00% |           0      0.00%    100.00% |           0      0.00%    100.00% |           0      0.00%    100.00% |           0      0.00%    100.00% (Unspecified)
board.cache_hierarchy.ruby_system.RequestType.LD.miss_latency_hist_seqr::total     56209531                       (Unspecified)
board.cache_hierarchy.ruby_system.RequestType.ST.latency_hist_seqr::bucket_size         2048                       (Unspecified)
board.cache_hierarchy.ruby_system.RequestType.ST.latency_hist_seqr::max_bucket        20479                       (Unspecified)
board.cache_hierarchy.ruby_system.RequestType.ST.latency_hist_seqr::samples    649995100                       (Unspecified)
board.cache_hierarchy.ruby_system.RequestType.ST.latency_hist_seqr::mean     5.435141                       (Unspecified)
board.cache_hierarchy.ruby_system.RequestType.ST.latency_hist_seqr::gmean     1.118240                       (Unspecified)
board.cache_hierarchy.ruby_system.RequestType.ST.latency_hist_seqr::stdev    38.069823                       (Unspecified)
board.cache_hierarchy.ruby_system.RequestType.ST.latency_hist_seqr |   649993885    100.00%    100.00% |         988      0.00%    100.00% |         131      0.00%    100.00% |          45      0.00%    100.00% |          28      0.00%    100.00% |           9      0.00%    100.00% |           4      0.00%    100.00% |           5      0.00%    100.00% |           2      0.00%    100.00% |           3      0.00%    100.00% (Unspecified)
board.cache_hierarchy.ruby_system.RequestType.ST.latency_hist_seqr::total    649995100                       (Unspecified)
board.cache_hierarchy.ruby_system.RequestType.ST.hit_latency_hist_seqr::bucket_size         1024                       (Unspecified)
board.cache_hierarchy.ruby_system.RequestType.ST.hit_latency_hist_seqr::max_bucket        10239                       (Unspecified)
board.cache_hierarchy.ruby_system.RequestType.ST.hit_latency_hist_seqr::samples    637783835                       (Unspecified)
board.cache_hierarchy.ruby_system.RequestType.ST.hit_latency_hist_seqr::mean     1.072803                       (Unspecified)
board.cache_hierarchy.ruby_system.RequestType.ST.hit_latency_hist_seqr::gmean     1.014405                       (Unspecified)
board.cache_hierarchy.ruby_system.RequestType.ST.hit_latency_hist_seqr::stdev     4.166647                       (Unspecified)
board.cache_hierarchy.ruby_system.RequestType.ST.hit_latency_hist_seqr |   637783051    100.00%    100.00% |         760      0.00%    100.00% |          14      0.00%    100.00% |           3      0.00%    100.00% |           2      0.00%    100.00% |           2      0.00%    100.00% |           2      0.00%    100.00% |           0      0.00%    100.00% |           1      0.00%    100.00% |           0      0.00%    100.00% (Unspecified)
board.cache_hierarchy.ruby_system.RequestType.ST.hit_latency_hist_seqr::total    637783835                       (Unspecified)
board.cache_hierarchy.ruby_system.RequestType.ST.miss_latency_hist_seqr::bucket_size         2048                       (Unspecified)
board.cache_hierarchy.ruby_system.RequestType.ST.miss_latency_hist_seqr::max_bucket        20479                       (Unspecified)
board.cache_hierarchy.ruby_system.RequestType.ST.miss_latency_hist_seqr::samples     12211265                       (Unspecified)
board.cache_hierarchy.ruby_system.RequestType.ST.miss_latency_hist_seqr::mean   233.276319                       (Unspecified)
board.cache_hierarchy.ruby_system.RequestType.ST.miss_latency_hist_seqr::gmean   181.580284                       (Unspecified)
board.cache_hierarchy.ruby_system.RequestType.ST.miss_latency_hist_seqr::stdev   152.752513                       (Unspecified)
board.cache_hierarchy.ruby_system.RequestType.ST.miss_latency_hist_seqr |    12210074     99.99%     99.99% |         971      0.01%    100.00% |         127      0.00%    100.00% |          43      0.00%    100.00% |          27      0.00%    100.00% |           9      0.00%    100.00% |           4      0.00%    100.00% |           5      0.00%    100.00% |           2      0.00%    100.00% |           3      0.00%    100.00% (Unspecified)
board.cache_hierarchy.ruby_system.RequestType.ST.miss_latency_hist_seqr::total     12211265                       (Unspecified)
board.cache_hierarchy.ruby_system.RequestType.IFETCH.latency_hist_seqr::bucket_size         2048                       (Unspecified)
board.cache_hierarchy.ruby_system.RequestType.IFETCH.latency_hist_seqr::max_bucket        20479                       (Unspecified)
board.cache_hierarchy.ruby_system.RequestType.IFETCH.latency_hist_seqr::samples    834581060                       (Unspecified)
board.cache_hierarchy.ruby_system.RequestType.IFETCH.latency_hist_seqr::mean    16.046622                       (Unspecified)
board.cache_hierarchy.ruby_system.RequestType.IFETCH.latency_hist_seqr::gmean     1.485507                       (Unspecified)
board.cache_hierarchy.ruby_system.RequestType.IFETCH.latency_hist_seqr::stdev    67.800676                       (Unspecified)
board.cache_hierarchy.ruby_system.RequestType.IFETCH.latency_hist_seqr |   834575343    100.00%    100.00% |        4802      0.00%    100.00% |         562      0.00%    100.00% |         184      0.00%    100.00% |         100      0.00%    100.00% |          40      0.00%    100.00% |          11      0.00%    100.00% |          11      0.00%    100.00% |           2      0.00%    100.00% |           5      0.00%    100.00% (Unspecified)
board.cache_hierarchy.ruby_system.RequestType.IFETCH.latency_hist_seqr::total    834581060                       (Unspecified)
board.cache_hierarchy.ruby_system.RequestType.IFETCH.hit_latency_hist_seqr::bucket_size            1                       (Unspecified)
board.cache_hierarchy.ruby_system.RequestType.IFETCH.hit_latency_hist_seqr::max_bucket            9                       (Unspecified)
board.cache_hierarchy.ruby_system.RequestType.IFETCH.hit_latency_hist_seqr::samples    760285474                       (Unspecified)
board.cache_hierarchy.ruby_system.RequestType.IFETCH.hit_latency_hist_seqr::mean     1.000002                       (Unspecified)
board.cache_hierarchy.ruby_system.RequestType.IFETCH.hit_latency_hist_seqr::gmean     1.000001                       (Unspecified)
board.cache_hierarchy.ruby_system.RequestType.IFETCH.hit_latency_hist_seqr::stdev     0.001338                       (Unspecified)
board.cache_hierarchy.ruby_system.RequestType.IFETCH.hit_latency_hist_seqr |           0      0.00%      0.00% |   760284152    100.00%    100.00% |        1309      0.00%    100.00% |          13      0.00%    100.00% |           0      0.00%    100.00% |           0      0.00%    100.00% |           0      0.00%    100.00% |           0      0.00%    100.00% |           0      0.00%    100.00% |           0      0.00%    100.00% (Unspecified)
board.cache_hierarchy.ruby_system.RequestType.IFETCH.hit_latency_hist_seqr::total    760285474                       (Unspecified)
board.cache_hierarchy.ruby_system.RequestType.IFETCH.miss_latency_hist_seqr::bucket_size         2048                       (Unspecified)
board.cache_hierarchy.ruby_system.RequestType.IFETCH.miss_latency_hist_seqr::max_bucket        20479                       (Unspecified)
board.cache_hierarchy.ruby_system.RequestType.IFETCH.miss_latency_hist_seqr::samples     74295586                       (Unspecified)
board.cache_hierarchy.ruby_system.RequestType.IFETCH.miss_latency_hist_seqr::mean   170.022479                       (Unspecified)
board.cache_hierarchy.ruby_system.RequestType.IFETCH.miss_latency_hist_seqr::gmean    85.252182                       (Unspecified)
board.cache_hierarchy.ruby_system.RequestType.IFETCH.miss_latency_hist_seqr::stdev   160.040973                       (Unspecified)
board.cache_hierarchy.ruby_system.RequestType.IFETCH.miss_latency_hist_seqr |    74289869     99.99%     99.99% |        4802      0.01%    100.00% |         562      0.00%    100.00% |         184      0.00%    100.00% |         100      0.00%    100.00% |          40      0.00%    100.00% |          11      0.00%    100.00% |          11      0.00%    100.00% |           2      0.00%    100.00% |           5      0.00%    100.00% (Unspecified)
board.cache_hierarchy.ruby_system.RequestType.IFETCH.miss_latency_hist_seqr::total     74295586                       (Unspecified)
board.cache_hierarchy.ruby_system.RequestType.RMW_Read.latency_hist_seqr::bucket_size         2048                       (Unspecified)
board.cache_hierarchy.ruby_system.RequestType.RMW_Read.latency_hist_seqr::max_bucket        20479                       (Unspecified)
board.cache_hierarchy.ruby_system.RequestType.RMW_Read.latency_hist_seqr::samples     22131141                       (Unspecified)
board.cache_hierarchy.ruby_system.RequestType.RMW_Read.latency_hist_seqr::mean    18.259732                       (Unspecified)
board.cache_hierarchy.ruby_system.RequestType.RMW_Read.latency_hist_seqr::gmean     1.536568                       (Unspecified)
board.cache_hierarchy.ruby_system.RequestType.RMW_Read.latency_hist_seqr::stdev    76.545118                       (Unspecified)
board.cache_hierarchy.ruby_system.RequestType.RMW_Read.latency_hist_seqr |    22130900    100.00%    100.00% |         198      0.00%    100.00% |          25      0.00%    100.00% |           8      0.00%    100.00% |           5      0.00%    100.00% |           1      0.00%    100.00% |           1      0.00%    100.00% |           0      0.00%    100.00% |           2      0.00%    100.00% |           1      0.00%    100.00% (Unspecified)
board.cache_hierarchy.ruby_system.RequestType.RMW_Read.latency_hist_seqr::total     22131141                       (Unspecified)
board.cache_hierarchy.ruby_system.RequestType.RMW_Read.hit_latency_hist_seqr::bucket_size         1024                       (Unspecified)
board.cache_hierarchy.ruby_system.RequestType.RMW_Read.hit_latency_hist_seqr::max_bucket        10239                       (Unspecified)
board.cache_hierarchy.ruby_system.RequestType.RMW_Read.hit_latency_hist_seqr::samples     20726375                       (Unspecified)
board.cache_hierarchy.ruby_system.RequestType.RMW_Read.hit_latency_hist_seqr::mean     4.006803                       (Unspecified)
board.cache_hierarchy.ruby_system.RequestType.RMW_Read.hit_latency_hist_seqr::gmean     1.128692                       (Unspecified)
board.cache_hierarchy.ruby_system.RequestType.RMW_Read.hit_latency_hist_seqr::stdev    30.862258                       (Unspecified)
board.cache_hierarchy.ruby_system.RequestType.RMW_Read.hit_latency_hist_seqr |    20724830     99.99%     99.99% |        1518      0.01%    100.00% |          17      0.00%    100.00% |           6      0.00%    100.00% |           1      0.00%    100.00% |           2      0.00%    100.00% |           0      0.00%    100.00% |           1      0.00%    100.00% |           0      0.00%    100.00% |           0      0.00%    100.00% (Unspecified)
board.cache_hierarchy.ruby_system.RequestType.RMW_Read.hit_latency_hist_seqr::total     20726375                       (Unspecified)
board.cache_hierarchy.ruby_system.RequestType.RMW_Read.miss_latency_hist_seqr::bucket_size         2048                       (Unspecified)
board.cache_hierarchy.ruby_system.RequestType.RMW_Read.miss_latency_hist_seqr::max_bucket        20479                       (Unspecified)
board.cache_hierarchy.ruby_system.RequestType.RMW_Read.miss_latency_hist_seqr::samples      1404766                       (Unspecified)
board.cache_hierarchy.ruby_system.RequestType.RMW_Read.miss_latency_hist_seqr::mean   228.552087                       (Unspecified)
board.cache_hierarchy.ruby_system.RequestType.RMW_Read.miss_latency_hist_seqr::gmean   145.639793                       (Unspecified)
board.cache_hierarchy.ruby_system.RequestType.RMW_Read.miss_latency_hist_seqr::stdev   176.163882                       (Unspecified)
board.cache_hierarchy.ruby_system.RequestType.RMW_Read.miss_latency_hist_seqr |     1404552     99.98%     99.98% |         175      0.01%    100.00% |          22      0.00%    100.00% |           7      0.00%    100.00% |           5      0.00%    100.00% |           1      0.00%    100.00% |           1      0.00%    100.00% |           0      0.00%    100.00% |           2      0.00%    100.00% |           1      0.00%    100.00% (Unspecified)
board.cache_hierarchy.ruby_system.RequestType.RMW_Read.miss_latency_hist_seqr::total      1404766                       (Unspecified)
board.cache_hierarchy.ruby_system.RequestType.Locked_RMW_Read.latency_hist_seqr::bucket_size         1024                       (Unspecified)
board.cache_hierarchy.ruby_system.RequestType.Locked_RMW_Read.latency_hist_seqr::max_bucket        10239                       (Unspecified)
board.cache_hierarchy.ruby_system.RequestType.Locked_RMW_Read.latency_hist_seqr::samples      4182486                       (Unspecified)
board.cache_hierarchy.ruby_system.RequestType.Locked_RMW_Read.latency_hist_seqr::mean    26.876001                       (Unspecified)
board.cache_hierarchy.ruby_system.RequestType.Locked_RMW_Read.latency_hist_seqr::gmean     1.952784                       (Unspecified)
board.cache_hierarchy.ruby_system.RequestType.Locked_RMW_Read.latency_hist_seqr::stdev    92.327053                       (Unspecified)
board.cache_hierarchy.ruby_system.RequestType.Locked_RMW_Read.latency_hist_seqr |     4179595     99.93%     99.93% |        2826      0.07%    100.00% |          35      0.00%    100.00% |          16      0.00%    100.00% |           5      0.00%    100.00% |           4      0.00%    100.00% |           3      0.00%    100.00% |           0      0.00%    100.00% |           1      0.00%    100.00% |           1      0.00%    100.00% (Unspecified)
board.cache_hierarchy.ruby_system.RequestType.Locked_RMW_Read.latency_hist_seqr::total      4182486                       (Unspecified)
board.cache_hierarchy.ruby_system.RequestType.Locked_RMW_Read.hit_latency_hist_seqr::bucket_size          512                       (Unspecified)
board.cache_hierarchy.ruby_system.RequestType.Locked_RMW_Read.hit_latency_hist_seqr::max_bucket         5119                       (Unspecified)
board.cache_hierarchy.ruby_system.RequestType.Locked_RMW_Read.hit_latency_hist_seqr::samples      3557179                       (Unspecified)
board.cache_hierarchy.ruby_system.RequestType.Locked_RMW_Read.hit_latency_hist_seqr::mean     1.110749                       (Unspecified)
board.cache_hierarchy.ruby_system.RequestType.Locked_RMW_Read.hit_latency_hist_seqr::gmean     1.002611                       (Unspecified)
board.cache_hierarchy.ruby_system.RequestType.Locked_RMW_Read.hit_latency_hist_seqr::stdev     6.187621                       (Unspecified)
board.cache_hierarchy.ruby_system.RequestType.Locked_RMW_Read.hit_latency_hist_seqr |     3557126    100.00%    100.00% |          39      0.00%    100.00% |          11      0.00%    100.00% |           1      0.00%    100.00% |           1      0.00%    100.00% |           0      0.00%    100.00% |           1      0.00%    100.00% |           0      0.00%    100.00% |           0      0.00%    100.00% |           0      0.00%    100.00% (Unspecified)
[...]
board.processor.cores9.core.fetch.nisnDist::stdev     2.469859                       # Number of instructions fetched each cycle (Total) (Count)
board.processor.cores9.core.fetch.nisnDist::underflows            0      0.00%      0.00% # Number of instructions fetched each cycle (Total) (Count)
board.processor.cores9.core.fetch.nisnDist::0   1181134211     83.21%     83.21% # Number of instructions fetched each cycle (Total) (Count)
board.processor.cores9.core.fetch.nisnDist::1     15159878      1.07%     84.28% # Number of instructions fetched each cycle (Total) (Count)
board.processor.cores9.core.fetch.nisnDist::2     12844688      0.90%     85.18% # Number of instructions fetched each cycle (Total) (Count)
board.processor.cores9.core.fetch.nisnDist::3     15391116      1.08%     86.27% # Number of instructions fetched each cycle (Total) (Count)
board.processor.cores9.core.fetch.nisnDist::4     27943049      1.97%     88.24% # Number of instructions fetched each cycle (Total) (Count)
board.processor.cores9.core.fetch.nisnDist::5     17810247      1.25%     89.49% # Number of instructions fetched each cycle (Total) (Count)
board.processor.cores9.core.fetch.nisnDist::6     11979597      0.84%     90.34% # Number of instructions fetched each cycle (Total) (Count)
board.processor.cores9.core.fetch.nisnDist::7     11796928      0.83%     91.17% # Number of instructions fetched each cycle (Total) (Count)
board.processor.cores9.core.fetch.nisnDist::8    125369478      8.83%    100.00% # Number of instructions fetched each cycle (Total) (Count)
board.processor.cores9.core.fetch.nisnDist::overflows            0      0.00%    100.00% # Number of instructions fetched each cycle (Total) (Count)
board.processor.cores9.core.fetch.nisnDist::min_value            0                       # Number of instructions fetched each cycle (Total) (Count)
board.processor.cores9.core.fetch.nisnDist::max_value            8                       # Number of instructions fetched each cycle (Total) (Count)
board.processor.cores9.core.fetch.nisnDist::total   1419429192                       # Number of instructions fetched each cycle (Total) (Count)
board.processor.cores9.core.fetch.branchRate     0.058435                       # Number of branch fetches per cycle (Ratio)
board.processor.cores9.core.fetch.rate       0.277379                       # Number of inst fetches per cycle ((Count/Cycle))
board.processor.cores9.core.iew.idleCycles            0                       # Number of cycles IEW is idle (Cycle)
board.processor.cores9.core.iew.squashCycles     11575349                       # Number of cycles IEW is squashing (Cycle)
board.processor.cores9.core.iew.blockCycles    201999021                       # Number of cycles IEW is blocking (Cycle)
board.processor.cores9.core.iew.unblockCycles     56347048                       # Number of cycles IEW is unblocking (Cycle)
board.processor.cores9.core.iew.dispatchedInsts   1257175297                       # Number of instructions dispatched to IQ (Count)
board.processor.cores9.core.iew.dispSquashedInsts      1060995                       # Number of squashed instructions skipped by dispatch (Count)
board.processor.cores9.core.iew.dispLoadInsts    170183177                       # Number of dispatched load instructions (Count)
board.processor.cores9.core.iew.dispStoreInsts    105526857                       # Number of dispatched store instructions (Count)
board.processor.cores9.core.iew.dispNonSpecInsts      1833651                       # Number of dispatched non-speculative instructions (Count)
board.processor.cores9.core.iew.iqFullEvents      1017251                       # Number of times the IQ has become full, causing a stall (Count)
board.processor.cores9.core.iew.lsqFullEvents     54704152                       # Number of times the LSQ has become full, causing a stall (Count)
board.processor.cores9.core.iew.memOrderViolationEvents       419736                       # Number of memory order violations (Count)
board.processor.cores9.core.iew.predictedTakenIncorrect      2357133                       # Number of branches that were predicted taken incorrectly (Count)
board.processor.cores9.core.iew.predictedNotTakenIncorrect      9515429                       # Number of branches that were predicted not taken incorrectly (Count)
board.processor.cores9.core.iew.branchMispredicts     11872562                       # Number of branch mispredicts detected at execute (Count)
board.processor.cores9.core.iew.instsToCommit   1165143084                       # Cumulative count of insts sent to commit (Count)
board.processor.cores9.core.iew.writebackCount   1157111908                       # Cumulative count of insts written-back (Count)
board.processor.cores9.core.iew.producerInst    818213613                       # Number of instructions producing a value (Count)
board.processor.cores9.core.iew.consumerInst   1391885432                       # Number of instructions consuming a value (Count)
board.processor.cores9.core.iew.wbRate       0.437655                       # Insts written-back per cycle ((Count/Cycle))
board.processor.cores9.core.iew.wbFanout     0.587846                       # Average fanout of values written-back ((Count/Count))
board.processor.cores9.core.lsq0.forwLoads     22245771                       # Number of loads that had data forwarded from stores (Count)
board.processor.cores9.core.lsq0.squashedLoads     41936873                       # Number of loads squashed (Count)
board.processor.cores9.core.lsq0.ignoredResponses       121439                       # Number of memory responses ignored because the instruction is squashed (Count)
board.processor.cores9.core.lsq0.memOrderViolation       419736                       # Number of memory ordering violations (Count)
board.processor.cores9.core.lsq0.squashedStores     29145911                       # Number of stores squashed (Count)
board.processor.cores9.core.lsq0.rescheduledLoads       122069                       # Number of loads that were rescheduled (Count)
board.processor.cores9.core.lsq0.blockedByCache       154662                       # Number of times an access to memory failed due to the cache being blocked (Count)
board.processor.cores9.core.lsq0.loadToUse::samples    128082820                       # Distribution of cycle latency between the first time a load is issued and its completion (Unspecified)
board.processor.cores9.core.lsq0.loadToUse::mean    16.910818                       # Distribution of cycle latency between the first time a load is issued and its completion (Unspecified)
board.processor.cores9.core.lsq0.loadToUse::stdev    74.099432                       # Distribution of cycle latency between the first time a load is issued and its completion (Unspecified)
board.processor.cores9.core.lsq0.loadToUse::0-9    119897927     93.61%     93.61% # Distribution of cycle latency between the first time a load is issued and its completion (Unspecified)
board.processor.cores9.core.lsq0.loadToUse::10-19      1197284      0.93%     94.54% # Distribution of cycle latency between the first time a load is issued and its completion (Unspecified)
board.processor.cores9.core.lsq0.loadToUse::20-29       704014      0.55%     95.09% # Distribution of cycle latency between the first time a load is issued and its completion (Unspecified)
board.processor.cores9.core.lsq0.loadToUse::30-39       111380      0.09%     95.18% # Distribution of cycle latency between the first time a load is issued and its completion (Unspecified)
board.processor.cores9.core.lsq0.loadToUse::40-49        76618      0.06%     95.24% # Distribution of cycle latency between the first time a load is issued and its completion (Unspecified)
board.processor.cores9.core.lsq0.loadToUse::50-59       125817      0.10%     95.34% # Distribution of cycle latency between the first time a load is issued and its completion (Unspecified)
board.processor.cores9.core.lsq0.loadToUse::60-69        47120      0.04%     95.38% # Distribution of cycle latency between the first time a load is issued and its completion (Unspecified)
board.processor.cores9.core.lsq0.loadToUse::70-79        21196      0.02%     95.39% # Distribution of cycle latency between the first time a load is issued and its completion (Unspecified)
board.processor.cores9.core.lsq0.loadToUse::80-89        21132      0.02%     95.41% # Distribution of cycle latency between the first time a load is issued and its completion (Unspecified)
board.processor.cores9.core.lsq0.loadToUse::90-99        40908      0.03%     95.44% # Distribution of cycle latency between the first time a load is issued and its completion (Unspecified)
board.processor.cores9.core.lsq0.loadToUse::100-109        26324      0.02%     95.46% # Distribution of cycle latency between the first time a load is issued and its completion (Unspecified)
board.processor.cores9.core.lsq0.loadToUse::110-119        28012      0.02%     95.48% # Distribution of cycle latency between the first time a load is issued and its completion (Unspecified)
board.processor.cores9.core.lsq0.loadToUse::120-129        34104      0.03%     95.51% # Distribution of cycle latency between the first time a load is issued and its completion (Unspecified)
board.processor.cores9.core.lsq0.loadToUse::130-139       127395      0.10%     95.61% # Distribution of cycle latency between the first time a load is issued and its completion (Unspecified)
board.processor.cores9.core.lsq0.loadToUse::140-149       394858      0.31%     95.92% # Distribution of cycle latency between the first time a load is issued and its completion (Unspecified)
board.processor.cores9.core.lsq0.loadToUse::150-159       154840      0.12%     96.04% # Distribution of cycle latency between the first time a load is issued and its completion (Unspecified)
board.processor.cores9.core.lsq0.loadToUse::160-169       115320      0.09%     96.13% # Distribution of cycle latency between the first time a load is issued and its completion (Unspecified)
board.processor.cores9.core.lsq0.loadToUse::170-179        83547      0.07%     96.19% # Distribution of cycle latency between the first time a load is issued and its completion (Unspecified)
board.processor.cores9.core.lsq0.loadToUse::180-189       173062      0.14%     96.33% # Distribution of cycle latency between the first time a load is issued and its completion (Unspecified)
board.processor.cores9.core.lsq0.loadToUse::190-199       128767      0.10%     96.43% # Distribution of cycle latency between the first time a load is issued and its completion (Unspecified)
board.processor.cores9.core.lsq0.loadToUse::200-209       122268      0.10%     96.52% # Distribution of cycle latency between the first time a load is issued and its completion (Unspecified)
board.processor.cores9.core.lsq0.loadToUse::210-219       144663      0.11%     96.64% # Distribution of cycle latency between the first time a load is issued and its completion (Unspecified)
board.processor.cores9.core.lsq0.loadToUse::220-229       651076      0.51%     97.15% # Distribution of cycle latency between the first time a load is issued and its completion (Unspecified)
board.processor.cores9.core.lsq0.loadToUse::230-239       557672      0.44%     97.58% # Distribution of cycle latency between the first time a load is issued and its completion (Unspecified)
board.processor.cores9.core.lsq0.loadToUse::240-249       376951      0.29%     97.88% # Distribution of cycle latency between the first time a load is issued and its completion (Unspecified)
board.processor.cores9.core.lsq0.loadToUse::250-259       253541      0.20%     98.07% # Distribution of cycle latency between the first time a load is issued and its completion (Unspecified)
board.processor.cores9.core.lsq0.loadToUse::260-269       194706      0.15%     98.23% # Distribution of cycle latency between the first time a load is issued and its completion (Unspecified)
board.processor.cores9.core.lsq0.loadToUse::270-279       164586      0.13%     98.35% # Distribution of cycle latency between the first time a load is issued and its completion (Unspecified)
board.processor.cores9.core.lsq0.loadToUse::280-289       151034      0.12%     98.47% # Distribution of cycle latency between the first time a load is issued and its completion (Unspecified)
board.processor.cores9.core.lsq0.loadToUse::290-299       135473      0.11%     98.58% # Distribution of cycle latency between the first time a load is issued and its completion (Unspecified)
board.processor.cores9.core.lsq0.loadToUse::overflows      1821225      1.42%    100.00% # Distribution of cycle latency between the first time a load is issued and its completion (Unspecified)
board.processor.cores9.core.lsq0.loadToUse::min_value            2                       # Distribution of cycle latency between the first time a load is issued and its completion (Unspecified)
board.processor.cores9.core.lsq0.loadToUse::max_value        17376                       # Distribution of cycle latency between the first time a load is issued and its completion (Unspecified)
board.processor.cores9.core.lsq0.loadToUse::total    128082820                       # Distribution of cycle latency between the first time a load is issued and its completion (Unspecified)
board.processor.cores9.core.mmu.dtb.rdAccesses    160272728                       # TLB accesses on read requests (Count)
board.processor.cores9.core.mmu.dtb.wrAccesses     95939694                       # TLB accesses on write requests (Count)
board.processor.cores9.core.mmu.dtb.rdMisses      3226777                       # TLB misses on read requests (Count)
board.processor.cores9.core.mmu.dtb.wrMisses      1028117                       # TLB misses on write requests (Count)
board.processor.cores9.core.mmu.dtb.walker.power_state.pwrStateResidencyTicks::UNDEFINED 26121103135282                       # Cumulative time (in ticks) in various power states (Tick)
board.processor.cores9.core.mmu.itb.rdAccesses            0                       # TLB accesses on read requests (Count)
board.processor.cores9.core.mmu.itb.wrAccesses    100727732                       # TLB accesses on write requests (Count)
board.processor.cores9.core.mmu.itb.rdMisses            0                       # TLB misses on read requests (Count)
board.processor.cores9.core.mmu.itb.wrMisses      3117135                       # TLB misses on write requests (Count)
board.processor.cores9.core.mmu.itb.walker.power_state.pwrStateResidencyTicks::UNDEFINED 26121103135282                       # Cumulative time (in ticks) in various power states (Tick)
board.processor.cores9.core.power_state.numTransitions         9270                       # Number of power state transitions (Count)
board.processor.cores9.core.power_state.ticksClkGated::samples         4635                       # Distribution of time spent in the clock gated state (Tick)
board.processor.cores9.core.power_state.ticksClkGated::mean 287389887.371737                       # Distribution of time spent in the clock gated state (Tick)
board.processor.cores9.core.power_state.ticksClkGated::stdev 286087743.925010                       # Distribution of time spent in the clock gated state (Tick)
board.processor.cores9.core.power_state.ticksClkGated::1000-5e+10         4635    100.00%    100.00% # Distribution of time spent in the clock gated state (Tick)
board.processor.cores9.core.power_state.ticksClkGated::min_value         4329                       # Distribution of time spent in the clock gated state (Tick)
board.processor.cores9.core.power_state.ticksClkGated::max_value    999183483                       # Distribution of time spent in the clock gated state (Tick)
board.processor.cores9.core.power_state.ticksClkGated::total         4635                       # Distribution of time spent in the clock gated state (Tick)
board.processor.cores9.core.power_state.pwrStateResidencyTicks::ON 881294019656                       # Cumulative time (in ticks) in various power states (Tick)
board.processor.cores9.core.power_state.pwrStateResidencyTicks::CLK_GATED 1332052127968                       # Cumulative time (in ticks) in various power states (Tick)
board.processor.cores9.core.rename.squashCycles     11575349                       # Number of cycles rename is squashing (Cycle)
board.processor.cores9.core.rename.idleCycles    516625323                       # Number of cycles rename is idle (Cycle)
board.processor.cores9.core.rename.blockCycles    387763435                       # Number of cycles rename is blocking (Cycle)
board.processor.cores9.core.rename.serializeStallCycles    121083634                       # count of cycles rename stalled for serializing inst (Cycle)
board.processor.cores9.core.rename.runCycles    193709033                       # Number of cycles rename is running (Cycle)
board.processor.cores9.core.rename.unblockCycles    188672418                       # Number of cycles rename is unblocking (Cycle)
board.processor.cores9.core.rename.renamedInsts   1293037347                       # Number of instructions processed by rename (Count)
board.processor.cores9.core.rename.ROBFullEvents      6733776                       # Number of times rename has blocked due to ROB full (Count)
board.processor.cores9.core.rename.IQFullEvents     36377862                       # Number of times rename has blocked due to IQ full (Count)
board.processor.cores9.core.rename.LQFullEvents     20707043                       # Number of times rename has blocked due to LQ full (Count)
board.processor.cores9.core.rename.SQFullEvents    126332881                       # Number of times rename has blocked due to SQ full (Count)
board.processor.cores9.core.rename.fullRegistersEvents         1090                       # Number of times there has been no free registers (Count)
board.processor.cores9.core.rename.renamedOperands   1433746916                       # Number of destination operands rename has renamed (Count)
board.processor.cores9.core.rename.lookups   3234864952                       # Number of register rename lookups that rename has made (Count)
board.processor.cores9.core.rename.intLookups   1971378905                       # Number of integer rename lookups (Count)
board.processor.cores9.core.rename.fpLookups     71804688                       # Number of floating rename lookups (Count)
board.processor.cores9.core.rename.committedMaps   1113717153                       # Number of HB maps that are committed (Count)
board.processor.cores9.core.rename.undoneMaps    320029745                       # Number of HB maps that are undone due to squashing (Count)
board.processor.cores9.core.rename.serializing      1260887                       # count of serializing insts renamed (Count)
board.processor.cores9.core.rename.tempSerializing      1254034                       # count of temporary serializing insts renamed (Count)
board.processor.cores9.core.rename.skidInsts    131540413                       # count of insts added to the skid buffer (Count)
board.processor.cores9.core.rob.reads      2569728308                       # The number of ROB reads (Count)
board.processor.cores9.core.rob.writes     2547302376                       # The number of ROB writes (Count)
board.processor.cores9.core.thread_0.numInsts    505136432                       # Number of Instructions committed (Count)
board.processor.cores9.core.thread_0.numOps    979554540                       # Number of Ops committed (Count)
board.processor.cores9.core.thread_0.numMemRefs            0                       # Number of Memory References (Count)
board.workload.inst.arm                             0                       # number of arm instructions executed (Count)
board.workload.inst.quiesce                         0                       # number of quiesce instructions executed (Count)

---------- End Simulation Statistics   ----------
