
---------- Begin Simulation Statistics ----------
simSeconds                                   3.276999                       # Number of seconds simulated (Second)
simTicks                                 3276999458595                       # Number of ticks simulated (Tick)
finalTick                                38939361276385                       # Number of ticks from beginning of simulation (restored from checkpoints and never reset) (Tick)
simFreq                                  1000000000000                       # The number of ticks per simulated second ((Tick/Second))
hostSeconds                                  62365.74                       # Real time elapsed on the host (Second)
hostTickRate                                 52544865                       # The number of ticks simulated per host second (ticks/s) ((Tick/Second))
hostMemory                                   14357564                       # Number of bytes of host memory used (Byte)
simInsts                                  12650077910                       # Number of instructions simulated (Count)
simOps                                    16997450476                       # Number of ops (including micro ops) simulated (Count)
hostInstRate                                   202837                       # Simulator instruction rate (inst/s) ((Count/Second))
hostOpRate                                     272545                       # Simulator op (including micro ops) rate (op/s) ((Count/Second))
board.cache_hierarchy.ruby_system.delayHistogram::bucket_size          512                       # delay histogram for all message (Unspecified)
board.cache_hierarchy.ruby_system.delayHistogram::max_bucket         5119                       # delay histogram for all message (Unspecified)
board.cache_hierarchy.ruby_system.delayHistogram::samples   1122337391                       # delay histogram for all message (Unspecified)
board.cache_hierarchy.ruby_system.delayHistogram::mean     0.631513                       # delay histogram for all message (Unspecified)
board.cache_hierarchy.ruby_system.delayHistogram::stdev     2.595036                       # delay histogram for all message (Unspecified)
board.cache_hierarchy.ruby_system.delayHistogram |  1122336725    100.00%    100.00% |         514      0.00%    100.00% |         111      0.00%    100.00% |          28      0.00%    100.00% |           9      0.00%    100.00% |           3      0.00%    100.00% |           1      0.00%    100.00% |           0      0.00%    100.00% |           0      0.00%    100.00% |           0      0.00%    100.00% # delay histogram for all message (Unspecified)
board.cache_hierarchy.ruby_system.delayHistogram::total   1122337391                       # delay histogram for all message (Unspecified)
board.cache_hierarchy.ruby_system.m_outstandReqHistSeqr::bucket_size            2                       (Unspecified)
board.cache_hierarchy.ruby_system.m_outstandReqHistSeqr::max_bucket           19                       (Unspecified)
board.cache_hierarchy.ruby_system.m_outstandReqHistSeqr::samples   2834659455                       (Unspecified)
board.cache_hierarchy.ruby_system.m_outstandReqHistSeqr::mean     2.156051                       (Unspecified)
board.cache_hierarchy.ruby_system.m_outstandReqHistSeqr::gmean     1.790562                       (Unspecified)
board.cache_hierarchy.ruby_system.m_outstandReqHistSeqr::stdev     1.614542                       (Unspecified)
board.cache_hierarchy.ruby_system.m_outstandReqHistSeqr |  1171499402     41.33%     41.33% |  1308625802     46.17%     87.49% |   257447777      9.08%     96.58% |    55780180      1.97%     98.54% |    19783081      0.70%     99.24% |     8207642      0.29%     99.53% |     5628495      0.20%     99.73% |     4640025      0.16%     99.89% |     3047051      0.11%    100.00% |           0      0.00%    100.00% (Unspecified)
board.cache_hierarchy.ruby_system.m_outstandReqHistSeqr::total   2834659455                       (Unspecified)
board.cache_hierarchy.ruby_system.m_latencyHistSeqr::bucket_size         2048                       (Unspecified)
board.cache_hierarchy.ruby_system.m_latencyHistSeqr::max_bucket        20479                       (Unspecified)
board.cache_hierarchy.ruby_system.m_latencyHistSeqr::samples   2846726506                       (Unspecified)
board.cache_hierarchy.ruby_system.m_latencyHistSeqr::mean    13.775876                       (Unspecified)
board.cache_hierarchy.ruby_system.m_latencyHistSeqr::gmean     1.389908                       (Unspecified)
board.cache_hierarchy.ruby_system.m_latencyHistSeqr::stdev    65.902739                       (Unspecified)
board.cache_hierarchy.ruby_system.m_latencyHistSeqr |  2846710133    100.00%    100.00% |       15625      0.00%    100.00% |         505      0.00%    100.00% |         119      0.00%    100.00% |          50      0.00%    100.00% |          47      0.00%    100.00% |           9      0.00%    100.00% |          11      0.00%    100.00% |           7      0.00%    100.00% |           0      0.00%    100.00% (Unspecified)
board.cache_hierarchy.ruby_system.m_latencyHistSeqr::total   2846726506                       (Unspecified)
board.cache_hierarchy.ruby_system.m_hitLatencyHistSeqr::bucket_size         1024                       (Unspecified)
board.cache_hierarchy.ruby_system.m_hitLatencyHistSeqr::max_bucket        10239                       (Unspecified)
board.cache_hierarchy.ruby_system.m_hitLatencyHistSeqr::samples   2638928451                       (Unspecified)
board.cache_hierarchy.ruby_system.m_hitLatencyHistSeqr::mean     1.033847                       (Unspecified)
board.cache_hierarchy.ruby_system.m_hitLatencyHistSeqr::gmean     1.004287                       (Unspecified)
board.cache_hierarchy.ruby_system.m_hitLatencyHistSeqr::stdev     3.363555                       (Unspecified)
board.cache_hierarchy.ruby_system.m_hitLatencyHistSeqr |  2638925304    100.00%    100.00% |        3064      0.00%    100.00% |          75      0.00%    100.00% |           6      0.00%    100.00% |           1      0.00%    100.00% |           0      0.00%    100.00% |           0      0.00%    100.00% |           0      0.00%    100.00% |           1      0.00%    100.00% |           0      0.00%    100.00% (Unspecified)
board.cache_hierarchy.ruby_system.m_hitLatencyHistSeqr::total   2638928451                       (Unspecified)
board.cache_hierarchy.ruby_system.m_missLatencyHistSeqr::bucket_size         2048                       (Unspecified)
board.cache_hierarchy.ruby_system.m_missLatencyHistSeqr::max_bucket        20479                       (Unspecified)
board.cache_hierarchy.ruby_system.m_missLatencyHistSeqr::samples    207798055                       (Unspecified)
board.cache_hierarchy.ruby_system.m_missLatencyHistSeqr::mean   175.593102                       (Unspecified)
board.cache_hierarchy.ruby_system.m_missLatencyHistSeqr::gmean    86.146807                       (Unspecified)
board.cache_hierarchy.ruby_system.m_missLatencyHistSeqr::stdev   176.376982                       (Unspecified)
board.cache_hierarchy.ruby_system.m_missLatencyHistSeqr |   207781765     99.99%     99.99% |       15544      0.01%    100.00% |         504      0.00%    100.00% |         119      0.00%    100.00% |          49      0.00%    100.00% |          47      0.00%    100.00% |           9      0.00%    100.00% |          11      0.00%    100.00% |           7      0.00%    100.00% |           0      0.00%    100.00% (Unspecified)
board.cache_hierarchy.ruby_system.m_missLatencyHistSeqr::total    207798055                       (Unspecified)
board.cache_hierarchy.ruby_system.delayVCHist.vnet_0::bucket_size          512                       # delay histogram for vnet_0 (Unspecified)
board.cache_hierarchy.ruby_system.delayVCHist.vnet_0::max_bucket         5119                       # delay histogram for vnet_0 (Unspecified)
board.cache_hierarchy.ruby_system.delayVCHist.vnet_0::samples    326041132                       # delay histogram for vnet_0 (Unspecified)
board.cache_hierarchy.ruby_system.delayVCHist.vnet_0::mean     1.159700                       # delay histogram for vnet_0 (Unspecified)
board.cache_hierarchy.ruby_system.delayVCHist.vnet_0::stdev     3.822796                       # delay histogram for vnet_0 (Unspecified)
board.cache_hierarchy.ruby_system.delayVCHist.vnet_0 |   326040466    100.00%    100.00% |         514      0.00%    100.00% |         111      0.00%    100.00% |          28      0.00%    100.00% |           9      0.00%    100.00% |           3      0.00%    100.00% |           1      0.00%    100.00% |           0      0.00%    100.00% |           0      0.00%    100.00% |           0      0.00%    100.00% # delay histogram for vnet_0 (Unspecified)
board.cache_hierarchy.ruby_system.delayVCHist.vnet_0::total    326041132                       # delay histogram for vnet_0 (Unspecified)
board.cache_hierarchy.ruby_system.delayVCHist.vnet_1::bucket_size           16                       # delay histogram for vnet_1 (Unspecified)
board.cache_hierarchy.ruby_system.delayVCHist.vnet_1::max_bucket          159                       # delay histogram for vnet_1 (Unspecified)
board.cache_hierarchy.ruby_system.delayVCHist.vnet_1::samples    650729118                       # delay histogram for vnet_1 (Unspecified)
board.cache_hierarchy.ruby_system.delayVCHist.vnet_1::mean     0.508056                       # delay histogram for vnet_1 (Unspecified)
board.cache_hierarchy.ruby_system.delayVCHist.vnet_1::stdev     2.012058                       # delay histogram for vnet_1 (Unspecified)
board.cache_hierarchy.ruby_system.delayVCHist.vnet_1 |   649058733     99.74%     99.74% |     1625066      0.25%     99.99% |       41826      0.01%    100.00% |        3107      0.00%    100.00% |         334      0.00%    100.00% |          40      0.00%    100.00% |           7      0.00%    100.00% |           2      0.00%    100.00% |           1      0.00%    100.00% |           2      0.00%    100.00% # delay histogram for vnet_1 (Unspecified)
board.cache_hierarchy.ruby_system.delayVCHist.vnet_1::total    650729118                       # delay histogram for vnet_1 (Unspecified)
board.cache_hierarchy.ruby_system.delayVCHist.vnet_2::bucket_size            1                       # delay histogram for vnet_2 (Unspecified)
board.cache_hierarchy.ruby_system.delayVCHist.vnet_2::max_bucket            9                       # delay histogram for vnet_2 (Unspecified)
board.cache_hierarchy.ruby_system.delayVCHist.vnet_2::samples    145567141                       # delay histogram for vnet_2 (Unspecified)
board.cache_hierarchy.ruby_system.delayVCHist.vnet_2::mean     0.000370                       # delay histogram for vnet_2 (Unspecified)
board.cache_hierarchy.ruby_system.delayVCHist.vnet_2::stdev     0.027290                       # delay histogram for vnet_2 (Unspecified)
board.cache_hierarchy.ruby_system.delayVCHist.vnet_2 |   145540292     99.98%     99.98% |           0      0.00%     99.98% |       26763      0.02%    100.00% |           0      0.00%    100.00% |          86      0.00%    100.00% |           0      0.00%    100.00% |           0      0.00%    100.00% |           0      0.00%    100.00% |           0      0.00%    100.00% |           0      0.00%    100.00% # delay histogram for vnet_2 (Unspecified)
board.cache_hierarchy.ruby_system.delayVCHist.vnet_2::total    145567141                       # delay histogram for vnet_2 (Unspecified)
board.cache_hierarchy.ruby_system.Directory_Controller.Fetch    128343797      0.00%      0.00% (Unspecified)
board.cache_hierarchy.ruby_system.Directory_Controller.Data     25780668      0.00%      0.00% (Unspecified)
board.cache_hierarchy.ruby_system.Directory_Controller.Memory_Data    128733054      0.00%      0.00% (Unspecified)
board.cache_hierarchy.ruby_system.Directory_Controller.Memory_Ack     26558898      0.00%      0.00% (Unspecified)
board.cache_hierarchy.ruby_system.Directory_Controller.DMA_READ       419695      0.00%      0.00% (Unspecified)
board.cache_hierarchy.ruby_system.Directory_Controller.DMA_WRITE       778240      0.00%      0.00% (Unspecified)
board.cache_hierarchy.ruby_system.Directory_Controller.CleanReplacement    102559033      0.00%      0.00% (Unspecified)
board.cache_hierarchy.ruby_system.Directory_Controller.I.Fetch    128343797      0.00%      0.00% (Unspecified)
board.cache_hierarchy.ruby_system.Directory_Controller.I.DMA_READ       389258      0.00%      0.00% (Unspecified)
board.cache_hierarchy.ruby_system.Directory_Controller.I.DMA_WRITE       778230      0.00%      0.00% (Unspecified)
board.cache_hierarchy.ruby_system.Directory_Controller.ID.Memory_Data       389258      0.00%      0.00% (Unspecified)
board.cache_hierarchy.ruby_system.Directory_Controller.ID_W.Memory_Ack       778230      0.00%      0.00% (Unspecified)
board.cache_hierarchy.ruby_system.Directory_Controller.M.Data     25750388      0.00%      0.00% (Unspecified)
board.cache_hierarchy.ruby_system.Directory_Controller.M.DMA_READ        30270      0.00%      0.00% (Unspecified)
board.cache_hierarchy.ruby_system.Directory_Controller.M.DMA_WRITE           10      0.00%      0.00% (Unspecified)
board.cache_hierarchy.ruby_system.Directory_Controller.M.CleanReplacement    102559033      0.00%      0.00% (Unspecified)
board.cache_hierarchy.ruby_system.Directory_Controller.IM.Memory_Data    128343796      0.00%      0.00% (Unspecified)
board.cache_hierarchy.ruby_system.Directory_Controller.MI.Memory_Ack     25750388      0.00%      0.00% (Unspecified)
board.cache_hierarchy.ruby_system.Directory_Controller.MI.DMA_READ          167      0.00%      0.00% (Unspecified)
board.cache_hierarchy.ruby_system.Directory_Controller.M_DRD.Data        30270      0.00%      0.00% (Unspecified)
board.cache_hierarchy.ruby_system.Directory_Controller.M_DRDI.Memory_Ack        30270      0.00%      0.00% (Unspecified)
board.cache_hierarchy.ruby_system.Directory_Controller.M_DWR.Data           10      0.00%      0.00% (Unspecified)
board.cache_hierarchy.ruby_system.Directory_Controller.M_DWRI.Memory_Ack           10      0.00%      0.00% (Unspecified)
board.cache_hierarchy.ruby_system.DMA_Controller.ReadRequest |      419528    100.00%    100.00% |           0      0.00%    100.00% (Unspecified)
board.cache_hierarchy.ruby_system.DMA_Controller.ReadRequest::total       419528                       (Unspecified)
board.cache_hierarchy.ruby_system.DMA_Controller.WriteRequest |      778240    100.00%    100.00% |           0      0.00%    100.00% (Unspecified)
board.cache_hierarchy.ruby_system.DMA_Controller.WriteRequest::total       778240                       (Unspecified)
board.cache_hierarchy.ruby_system.DMA_Controller.Data |      419528    100.00%    100.00% |           0      0.00%    100.00% (Unspecified)
board.cache_hierarchy.ruby_system.DMA_Controller.Data::total       419528                       (Unspecified)
board.cache_hierarchy.ruby_system.DMA_Controller.Ack |      778240    100.00%    100.00% |           0      0.00%    100.00% (Unspecified)
board.cache_hierarchy.ruby_system.DMA_Controller.Ack::total       778240                       (Unspecified)
board.cache_hierarchy.ruby_system.DMA_Controller.READY.ReadRequest |      419528    100.00%    100.00% |           0      0.00%    100.00% (Unspecified)
board.cache_hierarchy.ruby_system.DMA_Controller.READY.ReadRequest::total       419528                       (Unspecified)
board.cache_hierarchy.ruby_system.DMA_Controller.READY.WriteRequest |      778240    100.00%    100.00% |           0      0.00%    100.00% (Unspecified)
board.cache_hierarchy.ruby_system.DMA_Controller.READY.WriteRequest::total       778240                       (Unspecified)
board.cache_hierarchy.ruby_system.DMA_Controller.BUSY_RD.Data |      419528    100.00%    100.00% |           0      0.00%    100.00% (Unspecified)
board.cache_hierarchy.ruby_system.DMA_Controller.BUSY_RD.Data::total       419528                       (Unspecified)
board.cache_hierarchy.ruby_system.DMA_Controller.BUSY_WR.Ack |      778240    100.00%    100.00% |           0      0.00%    100.00% (Unspecified)
board.cache_hierarchy.ruby_system.DMA_Controller.BUSY_WR.Ack::total       778240                       (Unspecified)
board.cache_hierarchy.ruby_system.L1Cache_Controller.Load |   117299934      9.61%      9.61% |    48385907      3.96%     13.58% |    37112950      3.04%     16.62% |    74970586      6.14%     22.76% |   100119135      8.20%     30.96% |    94917786      7.78%     38.74% |   100361577      8.22%     46.97% |    50019145      4.10%     51.06% |    96024822      7.87%     58.93% |    81704133      6.69%     65.63% |    37198768      3.05%     68.67% |    62993593      5.16%     73.84% |    58359192      4.78%     78.62% |    94364509      7.73%     86.35% |   103401925      8.47%     94.82% |    63175418      5.18%    100.00% (Unspecified)
board.cache_hierarchy.ruby_system.L1Cache_Controller.Load::total   1220409380                       (Unspecified)
board.cache_hierarchy.ruby_system.L1Cache_Controller.Ifetch |    84354361      9.60%      9.60% |    32787253      3.73%     13.34% |    23733750      2.70%     16.04% |    53563520      6.10%     22.14% |    72042302      8.20%     30.34% |    70934695      8.08%     38.41% |    72662793      8.27%     46.68% |    35312877      4.02%     50.70% |    70000476      7.97%     58.67% |    60247199      6.86%     65.53% |    26377959      3.00%     68.53% |    46366927      5.28%     73.81% |    42586736      4.85%     78.66% |    69180657      7.88%     86.54% |    74567057      8.49%     95.03% |    43691705      4.97%    100.00% (Unspecified)
board.cache_hierarchy.ruby_system.L1Cache_Controller.Ifetch::total    878410267                       (Unspecified)
board.cache_hierarchy.ruby_system.L1Cache_Controller.Store |    72889491      9.73%      9.73% |    32577675      4.35%     14.08% |    19042714      2.54%     16.63% |    44703651      5.97%     22.60% |    61484429      8.21%     30.81% |    60954422      8.14%     38.94% |    63508088      8.48%     47.42% |    29943809      4.00%     51.42% |    61132416      8.16%     59.59% |    48984401      6.54%     66.13% |    21594111      2.88%     69.01% |    39507260      5.28%     74.29% |    36120025      4.82%     79.11% |    58864329      7.86%     86.97% |    61587008      8.22%     95.19% |    35995695      4.81%    100.00% (Unspecified)
board.cache_hierarchy.ruby_system.L1Cache_Controller.Store::total    748889524                       (Unspecified)
board.cache_hierarchy.ruby_system.L1Cache_Controller.Inv |    12967299      9.12%      9.12% |     7006890      4.93%     14.05% |     4936696      3.47%     17.52% |     9208868      6.48%     24.00% |    10511307      7.39%     31.39% |    10332734      7.27%     38.66% |    11428132      8.04%     46.70% |     6531122      4.59%     51.29% |    10957289      7.71%     59.00% |    10072298      7.08%     66.08% |     5011639      3.53%     69.61% |     7236826      5.09%     74.70% |     7274458      5.12%     79.81% |    10940883      7.70%     87.51% |    11555467      8.13%     95.64% |     6201534      4.36%    100.00% (Unspecified)
board.cache_hierarchy.ruby_system.L1Cache_Controller.Inv::total    142173442                       (Unspecified)
board.cache_hierarchy.ruby_system.L1Cache_Controller.L1_Replacement |    17019672      9.67%      9.67% |     6163732      3.50%     13.17% |     4883681      2.77%     15.94% |    11494150      6.53%     22.47% |    14554570      8.27%     30.74% |    13687999      7.78%     38.51% |    14724304      8.36%     46.88% |     7279910      4.14%     51.01% |    13996395      7.95%     58.96% |    12148923      6.90%     65.86% |     5305306      3.01%     68.88% |     8865285      5.04%     73.91% |     8591334      4.88%     78.79% |    13867530      7.88%     86.67% |    15214495      8.64%     95.31% |     8254147      4.69%    100.00% (Unspecified)
board.cache_hierarchy.ruby_system.L1Cache_Controller.L1_Replacement::total    176051433                       (Unspecified)
board.cache_hierarchy.ruby_system.L1Cache_Controller.Fwd_GETX |       23798      9.72%      9.72% |       18544      7.58%     17.30% |        7950      3.25%     20.55% |       15340      6.27%     26.82% |       21205      8.66%     35.48% |       19594      8.01%     43.49% |       15824      6.47%     49.96% |        9723      3.97%     53.93% |       18313      7.48%     61.41% |       14140      5.78%     67.19% |        8708      3.56%     70.75% |       12527      5.12%     75.87% |       10894      4.45%     80.32% |       17564      7.18%     87.49% |       19425      7.94%     95.43% |       11180      4.57%    100.00% (Unspecified)
board.cache_hierarchy.ruby_system.L1Cache_Controller.Fwd_GETX::total       244729                       (Unspecified)
board.cache_hierarchy.ruby_system.L1Cache_Controller.Fwd_GETS |      331917     10.54%     10.54% |      181254      5.76%     16.30% |      112817      3.58%     19.88% |      210050      6.67%     26.55% |      243475      7.73%     34.28% |      220682      7.01%     41.29% |      237668      7.55%     48.84% |      136449      4.33%     53.17% |      236988      7.53%     60.70% |      217707      6.91%     67.61% |      103277      3.28%     70.89% |      150495      4.78%     75.67% |      154440      4.90%     80.58% |      232790      7.39%     87.97% |      249859      7.93%     95.90% |      128960      4.10%    100.00% (Unspecified)
board.cache_hierarchy.ruby_system.L1Cache_Controller.Fwd_GETS::total      3148828                       (Unspecified)
board.cache_hierarchy.ruby_system.L1Cache_Controller.Fwd_GET_INSTR |          12      8.45%      8.45% |           1      0.70%      9.15% |           4      2.82%     11.97% |           8      5.63%     17.61% |          14      9.86%     27.46% |          11      7.75%     35.21% |          13      9.15%     44.37% |           9      6.34%     50.70% |          15     10.56%     61.27% |           7      4.93%     66.20% |           8      5.63%     71.83% |           1      0.70%     72.54% |           6      4.23%     76.76% |          15     10.56%     87.32% |          11      7.75%     95.07% |           7      4.93%    100.00% (Unspecified)
board.cache_hierarchy.ruby_system.L1Cache_Controller.Fwd_GET_INSTR::total          142                       (Unspecified)
board.cache_hierarchy.ruby_system.L1Cache_Controller.Data |        4626     32.68%     32.68% |         603      4.26%     36.94% |         499      3.53%     40.47% |         623      4.40%     44.87% |        1017      7.19%     52.06% |         919      6.49%     58.55% |         423      2.99%     61.54% |         452      3.19%     64.73% |         631      4.46%     69.19% |         527      3.72%     72.91% |         383      2.71%     75.62% |         664      4.69%     80.31% |         511      3.61%     83.92% |         845      5.97%     89.89% |         786      5.55%     95.44% |         645      4.56%    100.00% (Unspecified)
board.cache_hierarchy.ruby_system.L1Cache_Controller.Data::total        14154                       (Unspecified)
board.cache_hierarchy.ruby_system.L1Cache_Controller.Data_Exclusive |     5205399      9.52%      9.52% |     1961791      3.59%     13.11% |     1434410      2.62%     15.73% |     3454088      6.32%     22.04% |     4397636      8.04%     30.08% |     4382335      8.01%     38.10% |     4625403      8.46%     46.56% |     2303898      4.21%     50.77% |     4363273      7.98%     58.75% |     3689078      6.75%     65.49% |     1629561      2.98%     68.47% |     2826101      5.17%     73.64% |     2677412      4.90%     78.53% |     4245318      7.76%     86.30% |     4590280      8.39%     94.69% |     2904229      5.31%    100.00% (Unspecified)
board.cache_hierarchy.ruby_system.L1Cache_Controller.Data_Exclusive::total     54690212                       (Unspecified)
board.cache_hierarchy.ruby_system.L1Cache_Controller.DataS_fromL1 |      265099      8.42%      8.42% |      413139     13.12%     21.54% |      123407      3.92%     25.46% |      198250      6.30%     31.75% |      210925      6.70%     38.45% |      187311      5.95%     44.40% |      207658      6.59%     50.99% |      142499      4.53%     55.52% |      207915      6.60%     62.12% |      214579      6.81%     68.94% |      102797      3.26%     72.20% |      139127      4.42%     76.62% |      153225      4.87%     81.48% |      220808      7.01%     88.50% |      237307      7.54%     96.03% |      124924      3.97%    100.00% (Unspecified)
board.cache_hierarchy.ruby_system.L1Cache_Controller.DataS_fromL1::total      3148970                       (Unspecified)
board.cache_hierarchy.ruby_system.L1Cache_Controller.Data_all_Acks |    13820252      9.25%      9.25% |     6789343      4.54%     13.80% |     4731086      3.17%     16.96% |     9681748      6.48%     23.44% |    11966656      8.01%     31.45% |    11152163      7.47%     38.92% |    12022474      8.05%     46.97% |     6520680      4.37%     51.33% |    11539161      7.72%     59.06% |    10272090      6.88%     65.93% |     5035882      3.37%     69.30% |     7602155      5.09%     74.39% |     7523005      5.04%     79.43% |    11484947      7.69%     87.12% |    12491439      8.36%     95.48% |     6752444      4.52%    100.00% (Unspecified)
board.cache_hierarchy.ruby_system.L1Cache_Controller.Data_all_Acks::total    149385525                       (Unspecified)
board.cache_hierarchy.ruby_system.L1Cache_Controller.Ack |      119186     16.34%     16.34% |       84287     11.56%     27.90% |       25001      3.43%     31.32% |       44390      6.09%     37.41% |       51820      7.10%     44.51% |       49182      6.74%     51.25% |       39353      5.40%     56.65% |       31722      4.35%     61.00% |       40291      5.52%     66.52% |       39405      5.40%     71.92% |       22565      3.09%     75.02% |       31147      4.27%     79.29% |       31385      4.30%     83.59% |       42787      5.87%     89.46% |       47661      6.53%     95.99% |       29242      4.01%    100.00% (Unspecified)
board.cache_hierarchy.ruby_system.L1Cache_Controller.Ack::total       729424                       (Unspecified)
board.cache_hierarchy.ruby_system.L1Cache_Controller.Ack_all |       74934     11.91%     11.91% |       78493     12.48%     24.39% |       20857      3.32%     27.71% |       38504      6.12%     33.83% |       47402      7.54%     41.36% |       40818      6.49%     47.85% |       36178      5.75%     53.60% |       28020      4.45%     58.06% |       37188      5.91%     63.97% |       37189      5.91%     69.88% |       20590      3.27%     73.15% |       28408      4.52%     77.67% |       28389      4.51%     82.18% |       40180      6.39%     88.57% |       44972      7.15%     95.72% |       26932      4.28%    100.00% (Unspecified)
board.cache_hierarchy.ruby_system.L1Cache_Controller.Ack_all::total       629054                       (Unspecified)
board.cache_hierarchy.ruby_system.L1Cache_Controller.WB_Ack |     4066994      9.96%      9.96% |     1421849      3.48%     13.44% |      824025      2.02%     15.46% |     2583900      6.33%     21.78% |     3522794      8.63%     30.41% |     3496474      8.56%     38.97% |     3540088      8.67%     47.64% |     1447871      3.55%     51.19% |     3279598      8.03%     59.22% |     2577565      6.31%     65.53% |     1011895      2.48%     68.01% |     2078213      5.09%     73.09% |     1901679      4.66%     77.75% |     3205545      7.85%     85.60% |     3498423      8.57%     94.17% |     2382255      5.83%    100.00% (Unspecified)
board.cache_hierarchy.ruby_system.L1Cache_Controller.WB_Ack::total     40839168                       (Unspecified)
board.cache_hierarchy.ruby_system.L1Cache_Controller.NP.Load |     4964914      9.71%      9.71% |     1626127      3.18%     12.89% |     1301700      2.55%     15.44% |     3259603      6.38%     21.81% |     4192315      8.20%     30.01% |     4079710      7.98%     37.99% |     4299239      8.41%     46.40% |     2088066      4.08%     50.49% |     4115699      8.05%     58.54% |     3470119      6.79%     65.32% |     1451716      2.84%     68.16% |     2631176      5.15%     73.31% |     2470685      4.83%     78.14% |     4029725      7.88%     86.03% |     4398285      8.60%     94.63% |     2746412      5.37%    100.00% (Unspecified)
board.cache_hierarchy.ruby_system.L1Cache_Controller.NP.Load::total     51125491                       (Unspecified)
board.cache_hierarchy.ruby_system.L1Cache_Controller.NP.Ifetch |    10588941      9.69%      9.69% |     3601794      3.29%     12.98% |     3198327      2.93%     15.91% |     7267537      6.65%     22.55% |     9090267      8.31%     30.87% |     8379818      7.66%     38.53% |     9135498      8.36%     46.89% |     4608484      4.22%     51.10% |     8654559      7.92%     59.02% |     7646744      6.99%     66.01% |     3433095      3.14%     69.15% |     5463331      5.00%     74.15% |     5316054      4.86%     79.01% |     8626580      7.89%     86.90% |     9516427      8.70%     95.61% |     4802455      4.39%    100.00% (Unspecified)
board.cache_hierarchy.ruby_system.L1Cache_Controller.NP.Ifetch::total    109329911                       (Unspecified)
board.cache_hierarchy.ruby_system.L1Cache_Controller.NP.Store |     1465895      9.40%      9.40% |      936229      6.00%     15.40% |      384414      2.46%     17.86% |      967372      6.20%     24.06% |     1272157      8.15%     32.22% |     1228482      7.87%     40.09% |     1289561      8.27%     48.36% |      583775      3.74%     52.10% |     1226274      7.86%     59.96% |     1032314      6.62%     66.58% |      421105      2.70%     69.28% |      771139      4.94%     74.22% |      805029      5.16%     79.38% |     1211404      7.77%     87.14% |     1299908      8.33%     95.48% |      705719      4.52%    100.00% (Unspecified)
board.cache_hierarchy.ruby_system.L1Cache_Controller.NP.Store::total     15600777                       (Unspecified)
board.cache_hierarchy.ruby_system.L1Cache_Controller.NP.Inv |     7389274     10.11%     10.11% |     2077184      2.84%     12.95% |     2196782      3.00%     15.95% |     4981001      6.81%     22.77% |     5776946      7.90%     30.67% |     5709379      7.81%     38.48% |     6345243      8.68%     47.15% |     2948023      4.03%     51.19% |     5941317      8.13%     59.31% |     5190182      7.10%     66.41% |     2199252      3.01%     69.42% |     3587650      4.91%     74.33% |     3493697      4.78%     79.10% |     5921970      8.10%     87.20% |     6248794      8.55%     95.75% |     3106545      4.25%    100.00% (Unspecified)
board.cache_hierarchy.ruby_system.L1Cache_Controller.NP.Inv::total     73113239                       (Unspecified)
board.cache_hierarchy.ruby_system.L1Cache_Controller.I.Load |     1011494      7.64%      7.64% |     1028439      7.77%     15.41% |      545527      4.12%     19.54% |      813710      6.15%     25.69% |      900147      6.80%     32.49% |      899783      6.80%     39.29% |      962452      7.27%     46.56% |      709185      5.36%     51.92% |      950179      7.18%     59.10% |      902636      6.82%     65.92% |      574912      4.34%     70.26% |      711338      5.38%     75.64% |      717440      5.42%     81.06% |      935176      7.07%     88.13% |      950474      7.18%     95.31% |      620828      4.69%    100.00% (Unspecified)
board.cache_hierarchy.ruby_system.L1Cache_Controller.I.Load::total     13233720                       (Unspecified)
board.cache_hierarchy.ruby_system.L1Cache_Controller.I.Ifetch |      997200      6.80%      6.80% |     1652812     11.28%     18.08% |      715515      4.88%     22.96% |      833012      5.68%     28.65% |      908461      6.20%     34.85% |      924942      6.31%     41.16% |      946437      6.46%     47.62% |      801324      5.47%     53.08% |      941992      6.43%     59.51% |      908753      6.20%     65.71% |      734726      5.01%     70.72% |      814000      5.55%     76.28% |      867647      5.92%     82.20% |      929785      6.34%     88.54% |      928075      6.33%     94.88% |      750939      5.12%    100.00% (Unspecified)
board.cache_hierarchy.ruby_system.L1Cache_Controller.I.Ifetch::total     14655620                       (Unspecified)
board.cache_hierarchy.ruby_system.L1Cache_Controller.I.Store |      265708      8.10%      8.10% |      318615      9.71%     17.82% |      143054      4.36%     22.18% |      192297      5.86%     28.04% |      212035      6.46%     34.50% |      209108      6.38%     40.88% |      222232      6.78%     47.66% |      176185      5.37%     53.03% |      221061      6.74%     59.77% |      215129      6.56%     66.33% |      152412      4.65%     70.97% |      175981      5.37%     76.34% |      176665      5.39%     81.73% |      218327      6.66%     88.38% |      226018      6.89%     95.27% |      155021      4.73%    100.00% (Unspecified)
board.cache_hierarchy.ruby_system.L1Cache_Controller.I.Store::total      3279848                       (Unspecified)
board.cache_hierarchy.ruby_system.L1Cache_Controller.I.Inv |           4      5.63%      5.63% |           3      4.23%      9.86% |           3      4.23%     14.08% |           8     11.27%     25.35% |           2      2.82%     28.17% |           1      1.41%     29.58% |          10     14.08%     43.66% |           3      4.23%     47.89% |           6      8.45%     56.34% |           4      5.63%     61.97% |           8     11.27%     73.24% |           3      4.23%     77.46% |           7      9.86%     87.32% |           5      7.04%     94.37% |           2      2.82%     97.18% |           2      2.82%    100.00% (Unspecified)
board.cache_hierarchy.ruby_system.L1Cache_Controller.I.Inv::total           71                       (Unspecified)
board.cache_hierarchy.ruby_system.L1Cache_Controller.I.L1_Replacement |     3324597      8.73%      8.73% |     1946271      5.11%     13.83% |     1342646      3.52%     17.36% |     2401533      6.30%     23.66% |     2732631      7.17%     30.83% |     2606790      6.84%     37.67% |     2965479      7.78%     45.46% |     1904302      5.00%     50.46% |     2918136      7.66%     58.11% |     2867701      7.53%     65.64% |     1357169      3.56%     69.20% |     1957937      5.14%     74.34% |     2027914      5.32%     79.66% |     2951430      7.75%     87.41% |     3219330      8.45%     95.86% |     1577155      4.14%    100.00% (Unspecified)
board.cache_hierarchy.ruby_system.L1Cache_Controller.I.L1_Replacement::total     38101021                       (Unspecified)
board.cache_hierarchy.ruby_system.L1Cache_Controller.S.Load |     7016065      8.02%      8.02% |     8513955      9.73%     17.75% |     5976083      6.83%     24.58% |     5654084      6.46%     31.05% |     5961556      6.81%     37.86% |     5235333      5.98%     43.84% |     5129526      5.86%     49.71% |     3869710      4.42%     54.13% |     5933808      6.78%     60.91% |     5711864      6.53%     67.44% |     3147680      3.60%     71.04% |     4305152      4.92%     75.96% |     4442149      5.08%     81.04% |     6350686      7.26%     88.30% |     6559958      7.50%     95.80% |     3677798      4.20%    100.00% (Unspecified)
board.cache_hierarchy.ruby_system.L1Cache_Controller.S.Load::total     87485407                       (Unspecified)
board.cache_hierarchy.ruby_system.L1Cache_Controller.S.Ifetch |    72768155      9.65%      9.65% |    27532594      3.65%     13.30% |    19819756      2.63%     15.92% |    45462861      6.03%     21.95% |    62043517      8.22%     30.17% |    61629927      8.17%     38.34% |    62580787      8.30%     46.64% |    29903001      3.96%     50.60% |    60403908      8.01%     58.61% |    51691608      6.85%     65.46% |    22210067      2.94%     68.40% |    40089520      5.31%     73.72% |    36402966      4.83%     78.54% |    59624200      7.90%     86.45% |    64122363      8.50%     94.94% |    38138252      5.06%    100.00% (Unspecified)
board.cache_hierarchy.ruby_system.L1Cache_Controller.S.Ifetch::total    754423482                       (Unspecified)
board.cache_hierarchy.ruby_system.L1Cache_Controller.S.Store |       71532     11.38%     11.38% |       78750     12.53%     23.92% |       21224      3.38%     27.29% |       39059      6.22%     33.51% |       47237      7.52%     41.03% |       40784      6.49%     47.52% |       36294      5.78%     53.29% |       28078      4.47%     57.76% |       37773      6.01%     63.77% |       37241      5.93%     69.70% |       20864      3.32%     73.02% |       28826      4.59%     77.60% |       28511      4.54%     82.14% |       40256      6.41%     88.55% |       44811      7.13%     95.68% |       27155      4.32%    100.00% (Unspecified)
board.cache_hierarchy.ruby_system.L1Cache_Controller.S.Store::total       628395                       (Unspecified)
board.cache_hierarchy.ruby_system.L1Cache_Controller.S.Inv |     2990264      7.65%      7.65% |     3254322      8.33%     15.98% |     1699531      4.35%     20.33% |     2382584      6.10%     26.43% |     2591388      6.63%     33.06% |     2498006      6.39%     39.46% |     2701796      6.92%     46.37% |     2084345      5.33%     51.71% |     2700496      6.91%     58.62% |     2716674      6.95%     65.57% |     1711438      4.38%     69.95% |     2086841      5.34%     75.29% |     2159113      5.53%     80.82% |     2758190      7.06%     87.88% |     2912046      7.45%     95.33% |     1823987      4.67%    100.00% (Unspecified)
board.cache_hierarchy.ruby_system.L1Cache_Controller.S.Inv::total     39071021                       (Unspecified)
board.cache_hierarchy.ruby_system.L1Cache_Controller.S.L1_Replacement |     9627135      9.91%      9.91% |     2795006      2.88%     12.79% |     2716746      2.80%     15.59% |     6508055      6.70%     22.29% |     8298290      8.55%     30.84% |     7583722      7.81%     38.65% |     8217707      8.46%     47.11% |     3927128      4.04%     51.16% |     7797774      8.03%     59.19% |     6702887      6.90%     66.09% |     2935828      3.02%     69.11% |     4828472      4.97%     74.09% |     4661151      4.80%     78.89% |     7709710      7.94%     86.83% |     8495843      8.75%     95.58% |     4294152      4.42%    100.00% (Unspecified)
board.cache_hierarchy.ruby_system.L1Cache_Controller.S.L1_Replacement::total     97099606                       (Unspecified)
board.cache_hierarchy.ruby_system.L1Cache_Controller.E.Load |    47642919      9.69%      9.69% |    15984054      3.25%     12.94% |    12209257      2.48%     15.42% |    30548023      6.21%     21.63% |    40350191      8.21%     29.84% |    39538563      8.04%     37.88% |    42418706      8.63%     46.50% |    20486146      4.17%     50.67% |    39071469      7.95%     58.62% |    32703692      6.65%     65.27% |    14193694      2.89%     68.15% |    25390353      5.16%     73.32% |    23129636      4.70%     78.02% |    38088945      7.75%     85.76% |    42226331      8.59%     94.35% |    27777453      5.65%    100.00% (Unspecified)
board.cache_hierarchy.ruby_system.L1Cache_Controller.E.Load::total    491759432                       (Unspecified)
board.cache_hierarchy.ruby_system.L1Cache_Controller.E.Store |      907188      9.40%      9.40% |      367394      3.81%     13.21% |      287917      2.98%     16.20% |      608952      6.31%     22.51% |      773526      8.02%     30.53% |      740690      7.68%     38.21% |      758998      7.87%     46.07% |      420663      4.36%     50.43% |      754149      7.82%     58.25% |      702924      7.29%     65.54% |      310867      3.22%     68.76% |      502692      5.21%     73.97% |      504406      5.23%     79.20% |      749977      7.77%     86.97% |      822975      8.53%     95.51% |      433615      4.49%    100.00% (Unspecified)
board.cache_hierarchy.ruby_system.L1Cache_Controller.E.Store::total      9646933                       (Unspecified)
board.cache_hierarchy.ruby_system.L1Cache_Controller.E.Inv |     1401824      8.62%      8.62% |      792188      4.87%     13.50% |      525763      3.23%     16.73% |     1003948      6.18%     22.91% |     1183250      7.28%     30.19% |     1180913      7.26%     37.45% |     1344530      8.27%     45.72% |      819701      5.04%     50.77% |     1281250      7.88%     58.65% |     1176571      7.24%     65.89% |      579978      3.57%     69.45% |      858057      5.28%     74.73% |      857599      5.28%     80.01% |     1239616      7.63%     87.63% |     1314886      8.09%     95.72% |      695374      4.28%    100.00% (Unspecified)
board.cache_hierarchy.ruby_system.L1Cache_Controller.E.Inv::total     16255448                       (Unspecified)
board.cache_hierarchy.ruby_system.L1Cache_Controller.E.L1_Replacement |     2653286     10.09%     10.09% |      682936      2.60%     12.69% |      527482      2.01%     14.69% |     1671454      6.36%     21.05% |     2250657      8.56%     29.61% |     2286200      8.69%     38.30% |     2326216      8.85%     47.15% |      952601      3.62%     50.77% |     2133907      8.11%     58.88% |     1630492      6.20%     65.08% |      656829      2.50%     67.58% |     1345046      5.11%     72.70% |     1190211      4.53%     77.22% |     2065458      7.85%     85.08% |     2251334      8.56%     93.64% |     1673449      6.36%    100.00% (Unspecified)
board.cache_hierarchy.ruby_system.L1Cache_Controller.E.L1_Replacement::total     26297558                       (Unspecified)
board.cache_hierarchy.ruby_system.L1Cache_Controller.E.Fwd_GETX |        3686      9.18%      9.18% |        3168      7.89%     17.07% |        1686      4.20%     21.26% |        2790      6.95%     28.21% |        2930      7.30%     35.51% |        3116      7.76%     43.26% |        2952      7.35%     50.62% |        1709      4.26%     54.87% |        2839      7.07%     61.94% |        2620      6.52%     68.46% |        1175      2.93%     71.39% |        2125      5.29%     76.68% |        1850      4.61%     81.29% |        2760      6.87%     88.16% |        3128      7.79%     95.95% |        1628      4.05%    100.00% (Unspecified)
board.cache_hierarchy.ruby_system.L1Cache_Controller.E.Fwd_GETX::total        40162                       (Unspecified)
board.cache_hierarchy.ruby_system.L1Cache_Controller.E.Fwd_GETS |      239404      9.77%      9.77% |      116104      4.74%     14.51% |       91339      3.73%     18.24% |      166936      6.81%     25.06% |      187260      7.64%     32.70% |      171405      7.00%     39.70% |      192694      7.87%     47.57% |      109215      4.46%     52.02% |      191113      7.80%     59.83% |      176464      7.20%     67.03% |       80704      3.29%     70.32% |      118180      4.82%     75.15% |      123340      5.04%     80.18% |      187306      7.65%     87.83% |      197946      8.08%     95.91% |      100156      4.09%    100.00% (Unspecified)
board.cache_hierarchy.ruby_system.L1Cache_Controller.E.Fwd_GETS::total      2449566                       (Unspecified)
board.cache_hierarchy.ruby_system.L1Cache_Controller.E.Fwd_GET_INSTR |          11      7.91%      7.91% |           1      0.72%      8.63% |           4      2.88%     11.51% |           8      5.76%     17.27% |          13      9.35%     26.62% |          11      7.91%     34.53% |          13      9.35%     43.88% |           9      6.47%     50.36% |          15     10.79%     61.15% |           7      5.04%     66.19% |           8      5.76%     71.94% |           1      0.72%     72.66% |           6      4.32%     76.98% |          14     10.07%     87.05% |          11      7.91%     94.96% |           7      5.04%    100.00% (Unspecified)
board.cache_hierarchy.ruby_system.L1Cache_Controller.E.Fwd_GET_INSTR::total          139                       (Unspecified)
board.cache_hierarchy.ruby_system.L1Cache_Controller.M.Load |    56664073      9.82%      9.82% |    21233222      3.68%     13.51% |    17080295      2.96%     16.47% |    34694789      6.02%     22.48% |    48714209      8.45%     30.93% |    45163898      7.83%     38.76% |    47551140      8.24%     47.00% |    22865767      3.96%     50.97% |    45953244      7.97%     58.93% |    38915566      6.75%     65.68% |    17830627      3.09%     68.77% |    29955257      5.19%     73.96% |    27599044      4.78%     78.75% |    44959523      7.79%     86.54% |    49266361      8.54%     95.08% |    28352353      4.92%    100.00% (Unspecified)
board.cache_hierarchy.ruby_system.L1Cache_Controller.M.Load::total    576799368                       (Unspecified)
board.cache_hierarchy.ruby_system.L1Cache_Controller.M.Store |    70179096      9.75%      9.75% |    30876655      4.29%     14.04% |    18206096      2.53%     16.57% |    42895920      5.96%     22.53% |    59179375      8.22%     30.75% |    58735256      8.16%     38.91% |    61200880      8.50%     47.42% |    28735074      3.99%     51.41% |    58893094      8.18%     59.59% |    46996750      6.53%     66.12% |    20688846      2.87%     69.00% |    38028578      5.28%     74.28% |    34605360      4.81%     79.09% |    56644289      7.87%     86.96% |    59193223      8.22%     95.18% |    34674129      4.82%    100.00% (Unspecified)
board.cache_hierarchy.ruby_system.L1Cache_Controller.M.Store::total    719732621                       (Unspecified)
board.cache_hierarchy.ruby_system.L1Cache_Controller.M.Inv |     1184002      8.64%      8.64% |      881557      6.43%     15.07% |      512076      3.73%     18.80% |      839582      6.12%     24.92% |      958342      6.99%     31.91% |      943044      6.88%     38.79% |     1035377      7.55%     46.34% |      678192      4.95%     51.29% |     1032239      7.53%     58.82% |      987783      7.20%     66.02% |      520083      3.79%     69.82% |      702772      5.13%     74.94% |      763019      5.57%     80.51% |     1019411      7.44%     87.94% |     1078438      7.87%     95.81% |      574355      4.19%    100.00% (Unspecified)
board.cache_hierarchy.ruby_system.L1Cache_Controller.M.Inv::total     13710272                       (Unspecified)
board.cache_hierarchy.ruby_system.L1Cache_Controller.M.L1_Replacement |     1413708      9.72%      9.72% |      738913      5.08%     14.80% |      296543      2.04%     16.84% |      912446      6.27%     23.12% |     1272137      8.75%     31.87% |     1210274      8.32%     40.19% |     1213872      8.35%     48.54% |      495270      3.41%     51.94% |     1145691      7.88%     59.82% |      947073      6.51%     66.33% |      355066      2.44%     68.78% |      733167      5.04%     73.82% |      711468      4.89%     78.71% |     1140087      7.84%     86.55% |     1247089      8.58%     95.13% |      708806      4.87%    100.00% (Unspecified)
board.cache_hierarchy.ruby_system.L1Cache_Controller.M.L1_Replacement::total     14541610                       (Unspecified)
board.cache_hierarchy.ruby_system.L1Cache_Controller.M.Fwd_GETX |       20112      9.83%      9.83% |       15376      7.52%     17.35% |        6262      3.06%     20.41% |       12549      6.13%     26.54% |       18274      8.93%     35.48% |       16476      8.05%     43.53% |       12872      6.29%     49.83% |        8014      3.92%     53.74% |       15474      7.56%     61.31% |       11520      5.63%     66.94% |        7532      3.68%     70.62% |       10401      5.08%     75.71% |        9043      4.42%     80.13% |       14803      7.24%     87.36% |       16296      7.97%     95.33% |        9551      4.67%    100.00% (Unspecified)
board.cache_hierarchy.ruby_system.L1Cache_Controller.M.Fwd_GETX::total       204555                       (Unspecified)
board.cache_hierarchy.ruby_system.L1Cache_Controller.M.Fwd_GETS |       92501     13.23%     13.23% |       65142      9.32%     22.55% |       21472      3.07%     25.62% |       43103      6.17%     31.79% |       56202      8.04%     39.83% |       49270      7.05%     46.88% |       44964      6.43%     53.31% |       27225      3.89%     57.20% |       45853      6.56%     63.76% |       41232      5.90%     69.66% |       22567      3.23%     72.89% |       32298      4.62%     77.51% |       31081      4.45%     81.95% |       45469      6.50%     88.46% |       51889      7.42%     95.88% |       28798      4.12%    100.00% (Unspecified)
board.cache_hierarchy.ruby_system.L1Cache_Controller.M.Fwd_GETS::total       699066                       (Unspecified)
board.cache_hierarchy.ruby_system.L1Cache_Controller.IS.Inv |         143      4.28%      4.28% |         551     16.48%     20.76% |        1447     43.28%     64.04% |         133      3.98%     68.02% |         126      3.77%     71.79% |         100      2.99%     74.78% |         105      3.14%     77.92% |          63      1.88%     79.81% |          97      2.90%     82.71% |          62      1.85%     84.56% |          42      1.26%     85.82% |          80      2.39%     88.21% |          75      2.24%     90.46% |         111      3.32%     93.78% |         136      4.07%     97.85% |          72      2.15%    100.00% (Unspecified)
board.cache_hierarchy.ruby_system.L1Cache_Controller.IS.Inv::total         3343                       (Unspecified)
board.cache_hierarchy.ruby_system.L1Cache_Controller.IS.L1_Replacement |         789      8.04%      8.04% |         532      5.42%     13.46% |         229      2.33%     15.79% |         560      5.70%     21.50% |         717      7.30%     28.80% |         794      8.09%     36.89% |         909      9.26%     46.15% |         537      5.47%     51.62% |         738      7.52%     59.14% |         644      6.56%     65.70% |         345      3.51%     69.21% |         539      5.49%     74.70% |         506      5.15%     79.86% |         706      7.19%     87.05% |         782      7.97%     95.02% |         489      4.98%    100.00% (Unspecified)
board.cache_hierarchy.ruby_system.L1Cache_Controller.IS.L1_Replacement::total         9816                       (Unspecified)
board.cache_hierarchy.ruby_system.L1Cache_Controller.IS.Data_Exclusive |     5205389      9.52%      9.52% |     1961788      3.59%     13.11% |     1434403      2.62%     15.73% |     3454076      6.32%     22.04% |     4397623      8.04%     30.08% |     4382326      8.01%     38.10% |     4625394      8.46%     46.56% |     2303892      4.21%     50.77% |     4363269      7.98%     58.75% |     3689070      6.75%     65.49% |     1629555      2.98%     68.47% |     2826096      5.17%     73.64% |     2677402      4.90%     78.53% |     4245301      7.76%     86.30% |     4590270      8.39%     94.69% |     2904227      5.31%    100.00% (Unspecified)
board.cache_hierarchy.ruby_system.L1Cache_Controller.IS.Data_Exclusive::total     54690081                       (Unspecified)
board.cache_hierarchy.ruby_system.L1Cache_Controller.IS.DataS_fromL1 |      265098      8.42%      8.42% |      413139     13.12%     21.54% |      123407      3.92%     25.46% |      198250      6.30%     31.75% |      210925      6.70%     38.45% |      187304      5.95%     44.40% |      207658      6.59%     50.99% |      142499      4.53%     55.52% |      207915      6.60%     62.12% |      214579      6.81%     68.94% |      102797      3.26%     72.20% |      139126      4.42%     76.62% |      153225      4.87%     81.48% |      220808      7.01%     88.50% |      237307      7.54%     96.03% |      124924      3.97%    100.00% (Unspecified)
board.cache_hierarchy.ruby_system.L1Cache_Controller.IS.DataS_fromL1::total      3148961                       (Unspecified)
board.cache_hierarchy.ruby_system.L1Cache_Controller.IS.Data_all_Acks |    12091919      9.27%      9.27% |     5533694      4.24%     13.51% |     4201811      3.22%     16.73% |     8521403      6.53%     23.26% |    10482516      8.03%     31.29% |     9714523      7.44%     38.73% |    10510469      8.05%     46.79% |     5760605      4.41%     51.20% |    10091148      7.73%     58.93% |     9024541      6.92%     65.85% |     4462055      3.42%     69.27% |     6654543      5.10%     74.37% |     6541124      5.01%     79.38% |    10055046      7.70%     87.08% |    10965548      8.40%     95.49% |     5891411      4.51%    100.00% (Unspecified)
board.cache_hierarchy.ruby_system.L1Cache_Controller.IS.Data_all_Acks::total    130502356                       (Unspecified)
board.cache_hierarchy.ruby_system.L1Cache_Controller.IM.Inv |          17     27.87%     27.87% |           0      0.00%     27.87% |           0      0.00%     27.87% |           1      1.64%     29.51% |           1      1.64%     31.15% |          30     49.18%     80.33% |           0      0.00%     80.33% |           1      1.64%     81.97% |           0      0.00%     81.97% |           0      0.00%     81.97% |           1      1.64%     83.61% |           6      9.84%     93.44% |           2      3.28%     96.72% |           0      0.00%     96.72% |           1      1.64%     98.36% |           1      1.64%    100.00% (Unspecified)
board.cache_hierarchy.ruby_system.L1Cache_Controller.IM.Inv::total           61                       (Unspecified)
board.cache_hierarchy.ruby_system.L1Cache_Controller.IM.L1_Replacement |         157      8.62%      8.62% |          74      4.06%     12.68% |          35      1.92%     14.60% |         102      5.60%     20.20% |         138      7.57%     27.77% |         219     12.02%     39.79% |         121      6.64%     46.43% |          72      3.95%     50.38% |         149      8.18%     58.56% |         126      6.92%     65.48% |          69      3.79%     69.26% |         124      6.81%     76.07% |          84      4.61%     80.68% |         139      7.63%     88.31% |         117      6.42%     94.73% |          96      5.27%    100.00% (Unspecified)
board.cache_hierarchy.ruby_system.L1Cache_Controller.IM.L1_Replacement::total         1822                       (Unspecified)
board.cache_hierarchy.ruby_system.L1Cache_Controller.IM.Data |        4626     32.68%     32.68% |         603      4.26%     36.94% |         499      3.53%     40.47% |         623      4.40%     44.87% |        1017      7.19%     52.06% |         919      6.49%     58.55% |         423      2.99%     61.54% |         452      3.19%     64.73% |         631      4.46%     69.19% |         527      3.72%     72.91% |         383      2.71%     75.62% |         664      4.69%     80.31% |         511      3.61%     83.92% |         845      5.97%     89.89% |         786      5.55%     95.44% |         645      4.56%    100.00% (Unspecified)
board.cache_hierarchy.ruby_system.L1Cache_Controller.IM.Data::total        14154                       (Unspecified)
board.cache_hierarchy.ruby_system.L1Cache_Controller.IM.Data_all_Acks |     1728201      9.15%      9.15% |     1255101      6.65%     15.80% |      527835      2.80%     18.60% |     1160224      6.15%     24.74% |     1484027      7.86%     32.60% |     1437556      7.61%     40.22% |     1511909      8.01%     48.22% |      760018      4.03%     52.25% |     1447920      7.67%     59.92% |     1247495      6.61%     66.53% |      573791      3.04%     69.57% |      947538      5.02%     74.58% |      981816      5.20%     79.79% |     1429807      7.57%     87.36% |     1525765      8.08%     95.44% |      860963      4.56%    100.00% (Unspecified)
board.cache_hierarchy.ruby_system.L1Cache_Controller.IM.Data_all_Acks::total     18879966                       (Unspecified)
board.cache_hierarchy.ruby_system.L1Cache_Controller.IM.Ack |           0      0.00%      0.00% |           3     27.27%     27.27% |           0      0.00%     27.27% |           0      0.00%     27.27% |           0      0.00%     27.27% |           0      0.00%     27.27% |           0      0.00%     27.27% |           0      0.00%     27.27% |           0      0.00%     27.27% |           2     18.18%     45.45% |           0      0.00%     45.45% |           0      0.00%     45.45% |           0      0.00%     45.45% |           4     36.36%     81.82% |           2     18.18%    100.00% |           0      0.00%    100.00% (Unspecified)
board.cache_hierarchy.ruby_system.L1Cache_Controller.IM.Ack::total           11                       (Unspecified)
board.cache_hierarchy.ruby_system.L1Cache_Controller.SM.Inv |        1224      9.07%      9.07% |         860      6.37%     15.44% |         866      6.42%     21.86% |        1178      8.73%     30.59% |         852      6.31%     36.90% |         885      6.56%     43.46% |         539      3.99%     47.45% |         510      3.78%     51.23% |        1216      9.01%     60.24% |         579      4.29%     64.54% |         657      4.87%     69.40% |        1082      8.02%     77.42% |         633      4.69%     82.11% |         921      6.82%     88.94% |         625      4.63%     93.57% |         868      6.43%    100.00% (Unspecified)
board.cache_hierarchy.ruby_system.L1Cache_Controller.SM.Inv::total        13495                       (Unspecified)
board.cache_hierarchy.ruby_system.L1Cache_Controller.SM.Ack |      119186     16.34%     16.34% |       84284     11.56%     27.90% |       25001      3.43%     31.32% |       44390      6.09%     37.41% |       51820      7.10%     44.51% |       49182      6.74%     51.26% |       39353      5.40%     56.65% |       31722      4.35%     61.00% |       40291      5.52%     66.52% |       39403      5.40%     71.93% |       22565      3.09%     75.02% |       31147      4.27%     79.29% |       31385      4.30%     83.59% |       42783      5.87%     89.46% |       47659      6.53%     95.99% |       29242      4.01%    100.00% (Unspecified)
board.cache_hierarchy.ruby_system.L1Cache_Controller.SM.Ack::total       729413                       (Unspecified)
board.cache_hierarchy.ruby_system.L1Cache_Controller.SM.Ack_all |       74934     11.91%     11.91% |       78493     12.48%     24.39% |       20857      3.32%     27.71% |       38504      6.12%     33.83% |       47402      7.54%     41.36% |       40818      6.49%     47.85% |       36178      5.75%     53.60% |       28020      4.45%     58.06% |       37188      5.91%     63.97% |       37189      5.91%     69.88% |       20590      3.27%     73.15% |       28408      4.52%     77.67% |       28389      4.51%     82.18% |       40180      6.39%     88.57% |       44972      7.15%     95.72% |       26932      4.28%    100.00% (Unspecified)
board.cache_hierarchy.ruby_system.L1Cache_Controller.SM.Ack_all::total       629054                       (Unspecified)
board.cache_hierarchy.ruby_system.L1Cache_Controller.IS_I.Data_Exclusive |          10      7.63%      7.63% |           3      2.29%      9.92% |           7      5.34%     15.27% |          12      9.16%     24.43% |          13      9.92%     34.35% |           9      6.87%     41.22% |           9      6.87%     48.09% |           6      4.58%     52.67% |           4      3.05%     55.73% |           8      6.11%     61.83% |           6      4.58%     66.41% |           5      3.82%     70.23% |          10      7.63%     77.86% |          17     12.98%     90.84% |          10      7.63%     98.47% |           2      1.53%    100.00% (Unspecified)
board.cache_hierarchy.ruby_system.L1Cache_Controller.IS_I.Data_Exclusive::total          131                       (Unspecified)
board.cache_hierarchy.ruby_system.L1Cache_Controller.IS_I.DataS_fromL1 |           1     11.11%     11.11% |           0      0.00%     11.11% |           0      0.00%     11.11% |           0      0.00%     11.11% |           0      0.00%     11.11% |           7     77.78%     88.89% |           0      0.00%     88.89% |           0      0.00%     88.89% |           0      0.00%     88.89% |           0      0.00%     88.89% |           0      0.00%     88.89% |           1     11.11%    100.00% |           0      0.00%    100.00% |           0      0.00%    100.00% |           0      0.00%    100.00% |           0      0.00%    100.00% (Unspecified)
board.cache_hierarchy.ruby_system.L1Cache_Controller.IS_I.DataS_fromL1::total            9                       (Unspecified)
board.cache_hierarchy.ruby_system.L1Cache_Controller.IS_I.Data_all_Acks |         132      4.12%      4.12% |         548     17.11%     21.23% |        1440     44.96%     66.19% |         121      3.78%     69.97% |         113      3.53%     73.49% |          84      2.62%     76.12% |          96      3.00%     79.11% |          57      1.78%     80.89% |          93      2.90%     83.80% |          54      1.69%     85.48% |          36      1.12%     86.61% |          74      2.31%     88.92% |          65      2.03%     90.95% |          94      2.93%     93.88% |         126      3.93%     97.81% |          70      2.19%    100.00% (Unspecified)
board.cache_hierarchy.ruby_system.L1Cache_Controller.IS_I.Data_all_Acks::total         3203                       (Unspecified)
board.cache_hierarchy.ruby_system.L1Cache_Controller.M_I.Load |         469      7.87%      7.87% |         110      1.85%      9.72% |          88      1.48%     11.19% |         376      6.31%     17.50% |         716     12.02%     29.52% |         499      8.37%     37.89% |         514      8.63%     46.52% |         271      4.55%     51.07% |         422      7.08%     58.15% |         256      4.30%     62.44% |         139      2.33%     64.78% |         317      5.32%     70.10% |         238      3.99%     74.09% |         454      7.62%     81.71% |         516      8.66%     90.37% |         574      9.63%    100.00% (Unspecified)
board.cache_hierarchy.ruby_system.L1Cache_Controller.M_I.Load::total         5959                       (Unspecified)
board.cache_hierarchy.ruby_system.L1Cache_Controller.M_I.Ifetch |          65      5.18%      5.18% |          53      4.23%      9.41% |         152     12.12%     21.53% |         110      8.77%     30.30% |          57      4.55%     34.85% |           8      0.64%     35.49% |          71      5.66%     41.15% |          68      5.42%     46.57% |          17      1.36%     47.93% |          94      7.50%     55.42% |          71      5.66%     61.08% |          76      6.06%     67.15% |          69      5.50%     72.65% |          92      7.34%     79.98% |         192     15.31%     95.30% |          59      4.70%    100.00% (Unspecified)
board.cache_hierarchy.ruby_system.L1Cache_Controller.M_I.Ifetch::total         1254                       (Unspecified)
board.cache_hierarchy.ruby_system.L1Cache_Controller.M_I.Store |          72      7.58%      7.58% |          32      3.37%     10.95% |           9      0.95%     11.89% |          51      5.37%     17.26% |          99     10.42%     27.68% |         102     10.74%     38.42% |         123     12.95%     51.37% |          34      3.58%     54.95% |          65      6.84%     61.79% |          43      4.53%     66.32% |          17      1.79%     68.11% |          44      4.63%     72.74% |          54      5.68%     78.42% |          76      8.00%     86.42% |          73      7.68%     94.11% |          56      5.89%    100.00% (Unspecified)
board.cache_hierarchy.ruby_system.L1Cache_Controller.M_I.Store::total          950                       (Unspecified)
board.cache_hierarchy.ruby_system.L1Cache_Controller.M_I.Inv |         547      8.43%      8.43% |         225      3.47%     11.89% |         228      3.51%     15.40% |         433      6.67%     22.07% |         400      6.16%     28.23% |         376      5.79%     34.03% |         532      8.19%     42.22% |         284      4.37%     46.60% |         668     10.29%     56.89% |         443      6.82%     63.71% |         180      2.77%     66.48% |         335      5.16%     71.64% |         313      4.82%     76.46% |         659     10.15%     86.61% |         539      8.30%     94.92% |         330      5.08%    100.00% (Unspecified)
board.cache_hierarchy.ruby_system.L1Cache_Controller.M_I.Inv::total         6492                       (Unspecified)
board.cache_hierarchy.ruby_system.L1Cache_Controller.M_I.Fwd_GETX |           0      0.00%      0.00% |           0      0.00%      0.00% |           2     16.67%     16.67% |           1      8.33%     25.00% |           1      8.33%     33.33% |           2     16.67%     50.00% |           0      0.00%     50.00% |           0      0.00%     50.00% |           0      0.00%     50.00% |           0      0.00%     50.00% |           1      8.33%     58.33% |           1      8.33%     66.67% |           1      8.33%     75.00% |           1      8.33%     83.33% |           1      8.33%     91.67% |           1      8.33%    100.00% (Unspecified)
board.cache_hierarchy.ruby_system.L1Cache_Controller.M_I.Fwd_GETX::total           12                       (Unspecified)
board.cache_hierarchy.ruby_system.L1Cache_Controller.M_I.Fwd_GETS |          12      6.12%      6.12% |           8      4.08%     10.20% |           6      3.06%     13.27% |          11      5.61%     18.88% |          13      6.63%     25.51% |           7      3.57%     29.08% |          10      5.10%     34.18% |           9      4.59%     38.78% |          22     11.22%     50.00% |          11      5.61%     55.61% |           6      3.06%     58.67% |          17      8.67%     67.35% |          19      9.69%     77.04% |          15      7.65%     84.69% |          24     12.24%     96.94% |           6      3.06%    100.00% (Unspecified)
board.cache_hierarchy.ruby_system.L1Cache_Controller.M_I.Fwd_GETS::total          196                       (Unspecified)
board.cache_hierarchy.ruby_system.L1Cache_Controller.M_I.Fwd_GET_INSTR |           1     33.33%     33.33% |           0      0.00%     33.33% |           0      0.00%     33.33% |           0      0.00%     33.33% |           1     33.33%     66.67% |           0      0.00%     66.67% |           0      0.00%     66.67% |           0      0.00%     66.67% |           0      0.00%     66.67% |           0      0.00%     66.67% |           0      0.00%     66.67% |           0      0.00%     66.67% |           0      0.00%     66.67% |           1     33.33%    100.00% |           0      0.00%    100.00% |           0      0.00%    100.00% (Unspecified)
board.cache_hierarchy.ruby_system.L1Cache_Controller.M_I.Fwd_GET_INSTR::total            3                       (Unspecified)
board.cache_hierarchy.ruby_system.L1Cache_Controller.M_I.WB_Ack |     4066434      9.96%      9.96% |     1421616      3.48%     13.44% |      823789      2.02%     15.46% |     2583455      6.33%     21.78% |     3522379      8.63%     30.41% |     3496089      8.56%     38.97% |     3539546      8.67%     47.64% |     1447578      3.55%     51.19% |     3278908      8.03%     59.22% |     2577111      6.31%     65.53% |     1011708      2.48%     68.01% |     2077860      5.09%     73.09% |     1901346      4.66%     77.75% |     3204869      7.85%     85.60% |     3497859      8.57%     94.17% |     2381918      5.83%    100.00% (Unspecified)
board.cache_hierarchy.ruby_system.L1Cache_Controller.M_I.WB_Ack::total     40832465                       (Unspecified)
board.cache_hierarchy.ruby_system.L1Cache_Controller.SINK_WB_ACK.Load |           0      0.00%      0.00% |           0      0.00%      0.00% |           0      0.00%      0.00% |           1     33.33%     33.33% |           1     33.33%     66.67% |           0      0.00%     66.67% |           0      0.00%     66.67% |           0      0.00%     66.67% |           1     33.33%    100.00% |           0      0.00%    100.00% |           0      0.00%    100.00% |           0      0.00%    100.00% |           0      0.00%    100.00% |           0      0.00%    100.00% |           0      0.00%    100.00% |           0      0.00%    100.00% (Unspecified)
board.cache_hierarchy.ruby_system.L1Cache_Controller.SINK_WB_ACK.Load::total            3                       (Unspecified)
board.cache_hierarchy.ruby_system.L1Cache_Controller.SINK_WB_ACK.WB_Ack |         560      8.35%      8.35% |         233      3.48%     11.83% |         236      3.52%     15.35% |         445      6.64%     21.99% |         415      6.19%     28.18% |         385      5.74%     33.93% |         542      8.09%     42.01% |         293      4.37%     46.38% |         690     10.29%     56.68% |         454      6.77%     63.45% |         187      2.79%     66.24% |         353      5.27%     71.51% |         333      4.97%     76.47% |         676     10.09%     86.56% |         564      8.41%     94.97% |         337      5.03%    100.00% (Unspecified)
board.cache_hierarchy.ruby_system.L1Cache_Controller.SINK_WB_ACK.WB_Ack::total         6703                       (Unspecified)
board.cache_hierarchy.ruby_system.L2Cache_Controller.L1_GET_INSTR    124002959      0.00%      0.00% (Unspecified)
board.cache_hierarchy.ruby_system.L2Cache_Controller.L1_GETS     64516563      0.00%      0.00% (Unspecified)
board.cache_hierarchy.ruby_system.L2Cache_Controller.L1_GETX     18933342      0.00%      0.00% (Unspecified)
board.cache_hierarchy.ruby_system.L2Cache_Controller.L1_UPGRADE       632164      0.00%      0.00% (Unspecified)
board.cache_hierarchy.ruby_system.L2Cache_Controller.L1_PUTX     40832863      0.00%      0.00% (Unspecified)
board.cache_hierarchy.ruby_system.L2Cache_Controller.L1_PUTX_old        12796      0.00%      0.00% (Unspecified)
board.cache_hierarchy.ruby_system.L2Cache_Controller.L2_Replacement     12911346      0.00%      0.00% (Unspecified)
board.cache_hierarchy.ruby_system.L2Cache_Controller.L2_Replacement_clean    115398087      0.00%      0.00% (Unspecified)
board.cache_hierarchy.ruby_system.L2Cache_Controller.Mem_Data    128343796      0.00%      0.00% (Unspecified)
board.cache_hierarchy.ruby_system.L2Cache_Controller.Mem_Ack    128339701      0.00%      0.00% (Unspecified)
board.cache_hierarchy.ruby_system.L2Cache_Controller.WB_Data     14412123      0.00%      0.00% (Unspecified)
board.cache_hierarchy.ruby_system.L2Cache_Controller.WB_Data_clean      2453611      0.00%      0.00% (Unspecified)
board.cache_hierarchy.ruby_system.L2Cache_Controller.Ack     42380078      0.00%      0.00% (Unspecified)
board.cache_hierarchy.ruby_system.L2Cache_Controller.Ack_all     85333022      0.00%      0.00% (Unspecified)
board.cache_hierarchy.ruby_system.L2Cache_Controller.Unblock      3148970      0.00%      0.00% (Unspecified)
board.cache_hierarchy.ruby_system.L2Cache_Controller.Exclusive_Unblock     74199232      0.00%      0.00% (Unspecified)
board.cache_hierarchy.ruby_system.L2Cache_Controller.MEM_Inv        60559      0.00%      0.00% (Unspecified)
board.cache_hierarchy.ruby_system.L2Cache_Controller.NP.L1_GET_INSTR     65894506      0.00%      0.00% (Unspecified)
board.cache_hierarchy.ruby_system.L2Cache_Controller.NP.L1_GETS     45369019      0.00%      0.00% (Unspecified)
board.cache_hierarchy.ruby_system.L2Cache_Controller.NP.L1_GETX     17080272      0.00%      0.00% (Unspecified)
board.cache_hierarchy.ruby_system.L2Cache_Controller.NP.L1_PUTX_old         6308      0.00%      0.00% (Unspecified)
board.cache_hierarchy.ruby_system.L2Cache_Controller.SS.L1_GET_INSTR     53557398      0.00%      0.00% (Unspecified)
board.cache_hierarchy.ruby_system.L2Cache_Controller.SS.L1_GETS      5048672      0.00%      0.00% (Unspecified)
board.cache_hierarchy.ruby_system.L2Cache_Controller.SS.L1_GETX        14182      0.00%      0.00% (Unspecified)
board.cache_hierarchy.ruby_system.L2Cache_Controller.SS.L1_UPGRADE       614900      0.00%      0.00% (Unspecified)
board.cache_hierarchy.ruby_system.L2Cache_Controller.SS.L1_PUTX          199      0.00%      0.00% (Unspecified)
board.cache_hierarchy.ruby_system.L2Cache_Controller.SS.L2_Replacement       218590      0.00%      0.00% (Unspecified)
board.cache_hierarchy.ruby_system.L2Cache_Controller.SS.L2_Replacement_clean     68858984      0.00%      0.00% (Unspecified)
board.cache_hierarchy.ruby_system.L2Cache_Controller.M.L1_GET_INSTR         1738      0.00%      0.00% (Unspecified)
board.cache_hierarchy.ruby_system.L2Cache_Controller.M.L1_GETS      9984191      0.00%      0.00% (Unspecified)
board.cache_hierarchy.ruby_system.L2Cache_Controller.M.L1_GETX      1554937      0.00%      0.00% (Unspecified)
board.cache_hierarchy.ruby_system.L2Cache_Controller.M.L2_Replacement     11602502      0.00%      0.00% (Unspecified)
board.cache_hierarchy.ruby_system.L2Cache_Controller.M.L2_Replacement_clean     17664091      0.00%      0.00% (Unspecified)
board.cache_hierarchy.ruby_system.L2Cache_Controller.M.MEM_Inv        23322      0.00%      0.00% (Unspecified)
board.cache_hierarchy.ruby_system.L2Cache_Controller.MT.L1_GET_INSTR          142      0.00%      0.00% (Unspecified)
board.cache_hierarchy.ruby_system.L2Cache_Controller.MT.L1_GETS      3148828      0.00%      0.00% (Unspecified)
board.cache_hierarchy.ruby_system.L2Cache_Controller.MT.L1_GETX       244729      0.00%      0.00% (Unspecified)
board.cache_hierarchy.ruby_system.L2Cache_Controller.MT.L1_PUTX     40832465      0.00%      0.00% (Unspecified)
board.cache_hierarchy.ruby_system.L2Cache_Controller.MT.L1_PUTX_old           12      0.00%      0.00% (Unspecified)
board.cache_hierarchy.ruby_system.L2Cache_Controller.MT.L2_Replacement      1090254      0.00%      0.00% (Unspecified)
board.cache_hierarchy.ruby_system.L2Cache_Controller.MT.L2_Replacement_clean     28875001      0.00%      0.00% (Unspecified)
board.cache_hierarchy.ruby_system.L2Cache_Controller.MT.MEM_Inv         6957      0.00%      0.00% (Unspecified)
board.cache_hierarchy.ruby_system.L2Cache_Controller.M_I.L1_GET_INSTR        15589      0.00%      0.00% (Unspecified)
board.cache_hierarchy.ruby_system.L2Cache_Controller.M_I.L1_GETS        50710      0.00%      0.00% (Unspecified)
board.cache_hierarchy.ruby_system.L2Cache_Controller.M_I.L1_GETX        21359      0.00%      0.00% (Unspecified)
board.cache_hierarchy.ruby_system.L2Cache_Controller.M_I.L1_PUTX_old          184      0.00%      0.00% (Unspecified)
board.cache_hierarchy.ruby_system.L2Cache_Controller.M_I.Mem_Ack    128339701      0.00%      0.00% (Unspecified)
board.cache_hierarchy.ruby_system.L2Cache_Controller.M_I.MEM_Inv        23323      0.00%      0.00% (Unspecified)
board.cache_hierarchy.ruby_system.L2Cache_Controller.MT_I.L1_GETS           13      0.00%      0.00% (Unspecified)
board.cache_hierarchy.ruby_system.L2Cache_Controller.MT_I.L1_GETX            3      0.00%      0.00% (Unspecified)
board.cache_hierarchy.ruby_system.L2Cache_Controller.MT_I.L1_PUTX_old          314      0.00%      0.00% (Unspecified)
board.cache_hierarchy.ruby_system.L2Cache_Controller.MT_I.WB_Data       873988      0.00%      0.00% (Unspecified)
board.cache_hierarchy.ruby_system.L2Cache_Controller.MT_I.WB_Data_clean           85      0.00%      0.00% (Unspecified)
board.cache_hierarchy.ruby_system.L2Cache_Controller.MT_I.Ack_all       223138      0.00%      0.00% (Unspecified)
board.cache_hierarchy.ruby_system.L2Cache_Controller.MT_I.MEM_Inv         6957      0.00%      0.00% (Unspecified)
board.cache_hierarchy.ruby_system.L2Cache_Controller.MCT_I.L1_GETS          349      0.00%      0.00% (Unspecified)
board.cache_hierarchy.ruby_system.L2Cache_Controller.MCT_I.L1_GETX           15      0.00%      0.00% (Unspecified)
board.cache_hierarchy.ruby_system.L2Cache_Controller.MCT_I.L1_PUTX_old         5978      0.00%      0.00% (Unspecified)
board.cache_hierarchy.ruby_system.L2Cache_Controller.MCT_I.WB_Data     12839043      0.00%      0.00% (Unspecified)
board.cache_hierarchy.ruby_system.L2Cache_Controller.MCT_I.WB_Data_clean         3648      0.00%      0.00% (Unspecified)
board.cache_hierarchy.ruby_system.L2Cache_Controller.MCT_I.Ack_all     16032310      0.00%      0.00% (Unspecified)
board.cache_hierarchy.ruby_system.L2Cache_Controller.I_I.L1_GET_INSTR         1835      0.00%      0.00% (Unspecified)
board.cache_hierarchy.ruby_system.L2Cache_Controller.I_I.L1_GETS          338      0.00%      0.00% (Unspecified)
board.cache_hierarchy.ruby_system.L2Cache_Controller.I_I.L1_GETX            2      0.00%      0.00% (Unspecified)
board.cache_hierarchy.ruby_system.L2Cache_Controller.I_I.Ack     41924538      0.00%      0.00% (Unspecified)
board.cache_hierarchy.ruby_system.L2Cache_Controller.I_I.Ack_all     68858984      0.00%      0.00% (Unspecified)
board.cache_hierarchy.ruby_system.L2Cache_Controller.S_I.L1_GETS            6      0.00%      0.00% (Unspecified)
board.cache_hierarchy.ruby_system.L2Cache_Controller.S_I.L1_GETX            3      0.00%      0.00% (Unspecified)
board.cache_hierarchy.ruby_system.L2Cache_Controller.S_I.Ack       455540      0.00%      0.00% (Unspecified)
board.cache_hierarchy.ruby_system.L2Cache_Controller.S_I.Ack_all       218590      0.00%      0.00% (Unspecified)
board.cache_hierarchy.ruby_system.L2Cache_Controller.ISS.L1_GET_INSTR            3      0.00%      0.00% (Unspecified)
board.cache_hierarchy.ruby_system.L2Cache_Controller.ISS.L1_GETS       662995      0.00%      0.00% (Unspecified)
board.cache_hierarchy.ruby_system.L2Cache_Controller.ISS.L1_GETX          372      0.00%      0.00% (Unspecified)
board.cache_hierarchy.ruby_system.L2Cache_Controller.ISS.L2_Replacement_clean            5      0.00%      0.00% (Unspecified)
board.cache_hierarchy.ruby_system.L2Cache_Controller.ISS.Mem_Data     44706021      0.00%      0.00% (Unspecified)
board.cache_hierarchy.ruby_system.L2Cache_Controller.IS.L1_GET_INSTR      4531744      0.00%      0.00% (Unspecified)
board.cache_hierarchy.ruby_system.L2Cache_Controller.IS.L1_GETS       145506      0.00%      0.00% (Unspecified)
board.cache_hierarchy.ruby_system.L2Cache_Controller.IS.L1_GETX            1      0.00%      0.00% (Unspecified)
board.cache_hierarchy.ruby_system.L2Cache_Controller.IS.L2_Replacement_clean            5      0.00%      0.00% (Unspecified)
board.cache_hierarchy.ruby_system.L2Cache_Controller.IS.Mem_Data     66557503      0.00%      0.00% (Unspecified)
board.cache_hierarchy.ruby_system.L2Cache_Controller.IM.L1_GETS          292      0.00%      0.00% (Unspecified)
board.cache_hierarchy.ruby_system.L2Cache_Controller.IM.L1_GETX         2926      0.00%      0.00% (Unspecified)
board.cache_hierarchy.ruby_system.L2Cache_Controller.IM.L2_Replacement_clean            1      0.00%      0.00% (Unspecified)
board.cache_hierarchy.ruby_system.L2Cache_Controller.IM.Mem_Data     17080272      0.00%      0.00% (Unspecified)
board.cache_hierarchy.ruby_system.L2Cache_Controller.SS_MB.L1_GETS        32639      0.00%      0.00% (Unspecified)
board.cache_hierarchy.ruby_system.L2Cache_Controller.SS_MB.L1_GETX         2759      0.00%      0.00% (Unspecified)
board.cache_hierarchy.ruby_system.L2Cache_Controller.SS_MB.L1_UPGRADE        13469      0.00%      0.00% (Unspecified)
board.cache_hierarchy.ruby_system.L2Cache_Controller.SS_MB.Exclusive_Unblock       629082      0.00%      0.00% (Unspecified)
board.cache_hierarchy.ruby_system.L2Cache_Controller.MT_MB.L1_GETS        20039      0.00%      0.00% (Unspecified)
board.cache_hierarchy.ruby_system.L2Cache_Controller.MT_MB.L1_GETX        11031      0.00%      0.00% (Unspecified)
board.cache_hierarchy.ruby_system.L2Cache_Controller.MT_MB.L1_PUTX           12      0.00%      0.00% (Unspecified)
board.cache_hierarchy.ruby_system.L2Cache_Controller.MT_MB.Exclusive_Unblock     73570150      0.00%      0.00% (Unspecified)
board.cache_hierarchy.ruby_system.L2Cache_Controller.MT_IIB.L1_GET_INSTR            4      0.00%      0.00% (Unspecified)
board.cache_hierarchy.ruby_system.L2Cache_Controller.MT_IIB.L1_GETS        50841      0.00%      0.00% (Unspecified)
board.cache_hierarchy.ruby_system.L2Cache_Controller.MT_IIB.L1_GETX          662      0.00%      0.00% (Unspecified)
[...]
board.processor.cores4.core.mmu.dtb.rdMisses            0                       # TLB misses on read requests (Count)
board.processor.cores4.core.mmu.dtb.wrMisses            0                       # TLB misses on write requests (Count)
board.processor.cores4.core.mmu.dtb.walker.power_state.pwrStateResidencyTicks::UNDEFINED 38939361276385                       # Cumulative time (in ticks) in various power states (Tick)
board.processor.cores4.core.mmu.itb.rdAccesses            0                       # TLB accesses on read requests (Count)
board.processor.cores4.core.mmu.itb.wrAccesses            0                       # TLB accesses on write requests (Count)
board.processor.cores4.core.mmu.itb.rdMisses            0                       # TLB misses on read requests (Count)
board.processor.cores4.core.mmu.itb.wrMisses            0                       # TLB misses on write requests (Count)
board.processor.cores4.core.mmu.itb.walker.power_state.pwrStateResidencyTicks::UNDEFINED 38939361276385                       # Cumulative time (in ticks) in various power states (Tick)
board.processor.cores4.core.power_state.pwrStateResidencyTicks::OFF 3278740466511                       # Cumulative time (in ticks) in various power states (Tick)
board.processor.cores4.core.thread_0.numInsts            0                       # Number of Instructions committed (Count)
board.processor.cores4.core.thread_0.numOps            0                       # Number of Ops committed (Count)
board.processor.cores4.core.thread_0.numMemRefs            0                       # Number of Memory References (Count)
board.processor.cores5.core.numCycles               0                       # Number of cpu cycles simulated (Cycle)
board.processor.cores5.core.numWorkItemsStarted            0                       # Number of work items this cpu started (Count)
board.processor.cores5.core.numWorkItemsCompleted            0                       # Number of work items this cpu completed (Count)
board.processor.cores5.core.committedInsts            0                       # Number of instructions committed (Count)
board.processor.cores5.core.numVMExits              0                       # total number of KVM exits (Count)
board.processor.cores5.core.numVMHalfEntries            0                       # number of KVM entries to finalize pending operations (Count)
board.processor.cores5.core.numExitSignal            0                       # exits due to signal delivery (Count)
board.processor.cores5.core.numMMIO                 0                       # number of VM exits due to memory mapped IO (Count)
board.processor.cores5.core.numCoalescedMMIO            0                       # number of coalesced memory mapped IO requests (Count)
board.processor.cores5.core.numIO                   0                       # number of VM exits due to legacy IO (Count)
board.processor.cores5.core.numHalt                 0                       # number of VM exits due to wait for interrupt instructions (Count)
board.processor.cores5.core.numInterrupts            0                       # number of interrupts delivered (Count)
board.processor.cores5.core.numHypercalls            0                       # number of hypercalls (Count)
board.processor.cores5.core.interrupts.clk_domain.clock         5328                       # Clock period in ticks (Tick)
board.processor.cores5.core.mmu.dtb.rdAccesses            0                       # TLB accesses on read requests (Count)
board.processor.cores5.core.mmu.dtb.wrAccesses            0                       # TLB accesses on write requests (Count)
board.processor.cores5.core.mmu.dtb.rdMisses            0                       # TLB misses on read requests (Count)
board.processor.cores5.core.mmu.dtb.wrMisses            0                       # TLB misses on write requests (Count)
board.processor.cores5.core.mmu.dtb.walker.power_state.pwrStateResidencyTicks::UNDEFINED 38939361276385                       # Cumulative time (in ticks) in various power states (Tick)
board.processor.cores5.core.mmu.itb.rdAccesses            0                       # TLB accesses on read requests (Count)
board.processor.cores5.core.mmu.itb.wrAccesses            0                       # TLB accesses on write requests (Count)
board.processor.cores5.core.mmu.itb.rdMisses            0                       # TLB misses on read requests (Count)
board.processor.cores5.core.mmu.itb.wrMisses            0                       # TLB misses on write requests (Count)
board.processor.cores5.core.mmu.itb.walker.power_state.pwrStateResidencyTicks::UNDEFINED 38939361276385                       # Cumulative time (in ticks) in various power states (Tick)
board.processor.cores5.core.power_state.pwrStateResidencyTicks::OFF 3278740466511                       # Cumulative time (in ticks) in various power states (Tick)
board.processor.cores5.core.thread_0.numInsts            0                       # Number of Instructions committed (Count)
board.processor.cores5.core.thread_0.numOps            0                       # Number of Ops committed (Count)
board.processor.cores5.core.thread_0.numMemRefs            0                       # Number of Memory References (Count)
board.processor.cores6.core.numCycles               0                       # Number of cpu cycles simulated (Cycle)
board.processor.cores6.core.numWorkItemsStarted            0                       # Number of work items this cpu started (Count)
board.processor.cores6.core.numWorkItemsCompleted            0                       # Number of work items this cpu completed (Count)
board.processor.cores6.core.committedInsts            0                       # Number of instructions committed (Count)
board.processor.cores6.core.numVMExits              0                       # total number of KVM exits (Count)
board.processor.cores6.core.numVMHalfEntries            0                       # number of KVM entries to finalize pending operations (Count)
board.processor.cores6.core.numExitSignal            0                       # exits due to signal delivery (Count)
board.processor.cores6.core.numMMIO                 0                       # number of VM exits due to memory mapped IO (Count)
board.processor.cores6.core.numCoalescedMMIO            0                       # number of coalesced memory mapped IO requests (Count)
board.processor.cores6.core.numIO                   0                       # number of VM exits due to legacy IO (Count)
board.processor.cores6.core.numHalt                 0                       # number of VM exits due to wait for interrupt instructions (Count)
board.processor.cores6.core.numInterrupts            0                       # number of interrupts delivered (Count)
board.processor.cores6.core.numHypercalls            0                       # number of hypercalls (Count)
board.processor.cores6.core.interrupts.clk_domain.clock         5328                       # Clock period in ticks (Tick)
board.processor.cores6.core.mmu.dtb.rdAccesses            0                       # TLB accesses on read requests (Count)
board.processor.cores6.core.mmu.dtb.wrAccesses            0                       # TLB accesses on write requests (Count)
board.processor.cores6.core.mmu.dtb.rdMisses            0                       # TLB misses on read requests (Count)
board.processor.cores6.core.mmu.dtb.wrMisses            0                       # TLB misses on write requests (Count)
board.processor.cores6.core.mmu.dtb.walker.power_state.pwrStateResidencyTicks::UNDEFINED 38939361276385                       # Cumulative time (in ticks) in various power states (Tick)
board.processor.cores6.core.mmu.itb.rdAccesses            0                       # TLB accesses on read requests (Count)
board.processor.cores6.core.mmu.itb.wrAccesses            0                       # TLB accesses on write requests (Count)
board.processor.cores6.core.mmu.itb.rdMisses            0                       # TLB misses on read requests (Count)
board.processor.cores6.core.mmu.itb.wrMisses            0                       # TLB misses on write requests (Count)
board.processor.cores6.core.mmu.itb.walker.power_state.pwrStateResidencyTicks::UNDEFINED 38939361276385                       # Cumulative time (in ticks) in various power states (Tick)
board.processor.cores6.core.power_state.pwrStateResidencyTicks::OFF 3278740466511                       # Cumulative time (in ticks) in various power states (Tick)
board.processor.cores6.core.thread_0.numInsts            0                       # Number of Instructions committed (Count)
board.processor.cores6.core.thread_0.numOps            0                       # Number of Ops committed (Count)
board.processor.cores6.core.thread_0.numMemRefs            0                       # Number of Memory References (Count)
board.processor.cores7.core.numCycles               0                       # Number of cpu cycles simulated (Cycle)
board.processor.cores7.core.numWorkItemsStarted            0                       # Number of work items this cpu started (Count)
board.processor.cores7.core.numWorkItemsCompleted            0                       # Number of work items this cpu completed (Count)
board.processor.cores7.core.committedInsts            0                       # Number of instructions committed (Count)
board.processor.cores7.core.numVMExits              0                       # total number of KVM exits (Count)
board.processor.cores7.core.numVMHalfEntries            0                       # number of KVM entries to finalize pending operations (Count)
board.processor.cores7.core.numExitSignal            0                       # exits due to signal delivery (Count)
board.processor.cores7.core.numMMIO                 0                       # number of VM exits due to memory mapped IO (Count)
board.processor.cores7.core.numCoalescedMMIO            0                       # number of coalesced memory mapped IO requests (Count)
board.processor.cores7.core.numIO                   0                       # number of VM exits due to legacy IO (Count)
board.processor.cores7.core.numHalt                 0                       # number of VM exits due to wait for interrupt instructions (Count)
board.processor.cores7.core.numInterrupts            0                       # number of interrupts delivered (Count)
board.processor.cores7.core.numHypercalls            0                       # number of hypercalls (Count)
board.processor.cores7.core.interrupts.clk_domain.clock         5328                       # Clock period in ticks (Tick)
board.processor.cores7.core.mmu.dtb.rdAccesses            0                       # TLB accesses on read requests (Count)
board.processor.cores7.core.mmu.dtb.wrAccesses            0                       # TLB accesses on write requests (Count)
board.processor.cores7.core.mmu.dtb.rdMisses            0                       # TLB misses on read requests (Count)
board.processor.cores7.core.mmu.dtb.wrMisses            0                       # TLB misses on write requests (Count)
board.processor.cores7.core.mmu.dtb.walker.power_state.pwrStateResidencyTicks::UNDEFINED 38939361276385                       # Cumulative time (in ticks) in various power states (Tick)
board.processor.cores7.core.mmu.itb.rdAccesses            0                       # TLB accesses on read requests (Count)
board.processor.cores7.core.mmu.itb.wrAccesses            0                       # TLB accesses on write requests (Count)
board.processor.cores7.core.mmu.itb.rdMisses            0                       # TLB misses on read requests (Count)
board.processor.cores7.core.mmu.itb.wrMisses            0                       # TLB misses on write requests (Count)
board.processor.cores7.core.mmu.itb.walker.power_state.pwrStateResidencyTicks::UNDEFINED 38939361276385                       # Cumulative time (in ticks) in various power states (Tick)
board.processor.cores7.core.power_state.pwrStateResidencyTicks::OFF 3278740466511                       # Cumulative time (in ticks) in various power states (Tick)
board.processor.cores7.core.thread_0.numInsts            0                       # Number of Instructions committed (Count)
board.processor.cores7.core.thread_0.numOps            0                       # Number of Ops committed (Count)
board.processor.cores7.core.thread_0.numMemRefs            0                       # Number of Memory References (Count)
board.processor.cores8.core.numCycles               0                       # Number of cpu cycles simulated (Cycle)
board.processor.cores8.core.numWorkItemsStarted            0                       # Number of work items this cpu started (Count)
board.processor.cores8.core.numWorkItemsCompleted            0                       # Number of work items this cpu completed (Count)
board.processor.cores8.core.committedInsts            0                       # Number of instructions committed (Count)
board.processor.cores8.core.numVMExits              0                       # total number of KVM exits (Count)
board.processor.cores8.core.numVMHalfEntries            0                       # number of KVM entries to finalize pending operations (Count)
board.processor.cores8.core.numExitSignal            0                       # exits due to signal delivery (Count)
board.processor.cores8.core.numMMIO                 0                       # number of VM exits due to memory mapped IO (Count)
board.processor.cores8.core.numCoalescedMMIO            0                       # number of coalesced memory mapped IO requests (Count)
board.processor.cores8.core.numIO                   0                       # number of VM exits due to legacy IO (Count)
board.processor.cores8.core.numHalt                 0                       # number of VM exits due to wait for interrupt instructions (Count)
board.processor.cores8.core.numInterrupts            0                       # number of interrupts delivered (Count)
board.processor.cores8.core.numHypercalls            0                       # number of hypercalls (Count)
board.processor.cores8.core.interrupts.clk_domain.clock         5328                       # Clock period in ticks (Tick)
board.processor.cores8.core.mmu.dtb.rdAccesses            0                       # TLB accesses on read requests (Count)
board.processor.cores8.core.mmu.dtb.wrAccesses            0                       # TLB accesses on write requests (Count)
board.processor.cores8.core.mmu.dtb.rdMisses            0                       # TLB misses on read requests (Count)
board.processor.cores8.core.mmu.dtb.wrMisses            0                       # TLB misses on write requests (Count)
board.processor.cores8.core.mmu.dtb.walker.power_state.pwrStateResidencyTicks::UNDEFINED 38939361276385                       # Cumulative time (in ticks) in various power states (Tick)
board.processor.cores8.core.mmu.itb.rdAccesses            0                       # TLB accesses on read requests (Count)
board.processor.cores8.core.mmu.itb.wrAccesses            0                       # TLB accesses on write requests (Count)
board.processor.cores8.core.mmu.itb.rdMisses            0                       # TLB misses on read requests (Count)
board.processor.cores8.core.mmu.itb.wrMisses            0                       # TLB misses on write requests (Count)
board.processor.cores8.core.mmu.itb.walker.power_state.pwrStateResidencyTicks::UNDEFINED 38939361276385                       # Cumulative time (in ticks) in various power states (Tick)
board.processor.cores8.core.power_state.pwrStateResidencyTicks::OFF 3278740466511                       # Cumulative time (in ticks) in various power states (Tick)
board.processor.cores8.core.thread_0.numInsts            0                       # Number of Instructions committed (Count)
board.processor.cores8.core.thread_0.numOps            0                       # Number of Ops committed (Count)
board.processor.cores8.core.thread_0.numMemRefs            0                       # Number of Memory References (Count)
board.processor.cores9.core.numCycles               0                       # Number of cpu cycles simulated (Cycle)
board.processor.cores9.core.numWorkItemsStarted            0                       # Number of work items this cpu started (Count)
board.processor.cores9.core.numWorkItemsCompleted            0                       # Number of work items this cpu completed (Count)
board.processor.cores9.core.committedInsts            0                       # Number of instructions committed (Count)
board.processor.cores9.core.numVMExits              0                       # total number of KVM exits (Count)
board.processor.cores9.core.numVMHalfEntries            0                       # number of KVM entries to finalize pending operations (Count)
board.processor.cores9.core.numExitSignal            0                       # exits due to signal delivery (Count)
board.processor.cores9.core.numMMIO                 0                       # number of VM exits due to memory mapped IO (Count)
board.processor.cores9.core.numCoalescedMMIO            0                       # number of coalesced memory mapped IO requests (Count)
board.processor.cores9.core.numIO                   0                       # number of VM exits due to legacy IO (Count)
board.processor.cores9.core.numHalt                 0                       # number of VM exits due to wait for interrupt instructions (Count)
board.processor.cores9.core.numInterrupts            0                       # number of interrupts delivered (Count)
board.processor.cores9.core.numHypercalls            0                       # number of hypercalls (Count)
board.processor.cores9.core.interrupts.clk_domain.clock         5328                       # Clock period in ticks (Tick)
board.processor.cores9.core.mmu.dtb.rdAccesses            0                       # TLB accesses on read requests (Count)
board.processor.cores9.core.mmu.dtb.wrAccesses            0                       # TLB accesses on write requests (Count)
board.processor.cores9.core.mmu.dtb.rdMisses            0                       # TLB misses on read requests (Count)
board.processor.cores9.core.mmu.dtb.wrMisses            0                       # TLB misses on write requests (Count)
board.processor.cores9.core.mmu.dtb.walker.power_state.pwrStateResidencyTicks::UNDEFINED 38939361276385                       # Cumulative time (in ticks) in various power states (Tick)
board.processor.cores9.core.mmu.itb.rdAccesses            0                       # TLB accesses on read requests (Count)
board.processor.cores9.core.mmu.itb.wrAccesses            0                       # TLB accesses on write requests (Count)
board.processor.cores9.core.mmu.itb.rdMisses            0                       # TLB misses on read requests (Count)
board.processor.cores9.core.mmu.itb.wrMisses            0                       # TLB misses on write requests (Count)
board.processor.cores9.core.mmu.itb.walker.power_state.pwrStateResidencyTicks::UNDEFINED 38939361276385                       # Cumulative time (in ticks) in various power states (Tick)
board.processor.cores9.core.power_state.pwrStateResidencyTicks::OFF 3278740466511                       # Cumulative time (in ticks) in various power states (Tick)
board.processor.cores9.core.thread_0.numInsts            0                       # Number of Instructions committed (Count)
board.processor.cores9.core.thread_0.numOps            0                       # Number of Ops committed (Count)
board.processor.cores9.core.thread_0.numMemRefs            0                       # Number of Memory References (Count)
board.workload.inst.arm                             0                       # number of arm instructions executed (Count)
board.workload.inst.quiesce                         0                       # number of quiesce instructions executed (Count)

---------- End Simulation Statistics   ----------
